@<TRIPOS>MOLECULE
RES
1787 2166 1 0 1
SMALL
NO_CHARGES
@<TRIPOS>CRYSIN
   50.0000    50.0000    18.2760    90.0000    90.0000    90.0000  1  1
@<TRIPOS>ATOM
       1 O           39.3280    24.2340     3.1580 O             1 RES     
       2 O            8.4580    48.5390     6.1960 O             1 RES     
       3 O            9.9370    34.3450     9.7080 O             1 RES     
       4 O           27.9310    20.9500     2.9650 O             1 RES     
       5 Si          34.0510    21.9090     6.4800 Si            1 RES     
       6 O           31.4160    17.1410     7.9150 O             1 RES     
       7 O            7.4230    25.4710     6.7820 O             1 RES     
       8 O           47.1120     3.1090     5.5400 O             1 RES     
       9 O           32.8980     7.8050     9.9470 O             1 RES     
      10 Si          38.7810    11.9610     4.5220 Si            1 RES     
      11 O           28.2200     7.4620    11.4690 O             1 RES     
      12 O           41.5420    22.2820     9.1930 O             1 RES     
      13 O           31.7550     1.9730    13.4760 O             1 RES     
      14 Si           1.2140    26.3900     3.6200 Si            1 RES     
      15 O           32.1660    42.1050     9.0280 O             1 RES     
      16 O           26.2930    46.3710     7.6460 O             1 RES     
      17 O           17.5360    25.3840     7.5700 O             1 RES     
      18 OS          45.4190    33.1370    12.1080 OS            1 RES     
      19 Si          37.4340     4.1390     8.1680 Si            1 RES     
      20 O           35.4360    32.8570     8.7280 O             1 RES     
      21 O           23.7070    24.5910     4.9950 O             1 RES     
      22 O            9.6650    31.9680     5.7910 O             1 RES     
      23 Si          45.4860    22.8860    10.2000 Si            1 RES     
      24 Si          19.9930    18.2280    12.3350 Si            1 RES     
      25 O           24.5250    30.7410     7.9630 O             1 RES     
      26 O           32.6640    41.9310    11.4990 O             1 RES     
      27 O            6.5590    27.3500     5.0100 O             1 RES     
      28 Si           8.9520    33.0600     4.9870 Si            1 RES     
      29 O           40.1130    25.9410     9.7650 O             1 RES     
      30 O           20.6210    37.5380     6.4480 O             1 RES     
      31 Si          24.6920    29.4830     6.9840 Si            1 RES     
      32 Si          19.3940    15.7420     5.6330 Si            1 RES     
      33 O           29.8760    11.7970     6.2890 O             1 RES     
      34 O           37.9360    30.6050     3.1040 O             1 RES     
      35 O           49.3000    43.1650     4.7740 O             1 RES     
      36 O           49.2410    15.4300     8.7790 O             1 RES     
      37 Si          16.0040    25.6960     7.5250 Si            1 RES     
      38 O           10.2360     3.4110     9.6970 O             1 RES     
      39 O           43.4210    28.2730     6.3950 O             1 RES     
      40 O            0.1870    40.6520     3.9740 O             1 RES     
      41 O           11.9330    36.8760     3.0060 O             1 RES     
      42 Si          43.8870     0.3740     7.3530 Si            1 RES     
      43 O           23.3580    12.3080    11.7210 O             1 RES     
      44 Si          25.3870    41.5760    12.4880 Si            1 RES     
      45 O           46.0860    21.2950     7.0170 O             1 RES     
      46 O           21.7340     6.6160     4.3500 O             1 RES     
      47 O           23.6280    38.4180    11.4120 O             1 RES     
      48 O           48.4240    30.3200     6.4430 O             1 RES     
      49 O           14.8410    23.7240    11.1040 O             1 RES     
      50 O           13.8720     7.7270     8.0010 O             1 RES     
      51 O           42.9320    35.6550     5.0210 O             1 RES     
      52 Si          14.9580    22.2990    11.7660 Si            1 RES     
      53 Si           1.3660    23.9370     5.4410 Si            1 RES     
      54 O           17.8410    37.7820    13.0870 O             1 RES     
      55 O            2.1070    45.4170     9.4240 O             1 RES     
      56 Si          23.7100    28.9220    12.3920 Si            1 RES     
      57 O           38.9530    35.4330    11.0830 O             1 RES     
      58 O           18.9750    37.1960     8.6150 O             1 RES     
      59 O           20.4090    49.8920     4.6600 O             1 RES     
      60 OS          45.0010    36.9310    13.7540 OS            1 RES     
      61 O           46.3590    38.6730     9.4100 O             1 RES     
      62 Si          30.3630    42.9570     3.6210 Si            1 RES     
      63 O           22.5390     0.6400     1.6870 O             1 RES     
      64 Si          47.8950    43.8810     5.0840 Si            1 RES     
      65 O           21.7380    45.4450     8.6830 O             1 RES     
      66 O           29.7260    34.7920    11.3840 O             1 RES     
      67 O           28.0750     5.0820    10.5820 O             1 RES     
      68 Si          24.9300    47.1050     7.6980 Si            1 RES     
      69 O           49.2420    47.3080     4.1190 O             1 RES     
      70 OS          42.6700    39.8890    13.3630 OS            1 RES     
      71 O           30.4550     7.1310    10.0400 O             1 RES     
      72 Si          23.1700     7.2460     4.4180 Si            1 RES     
      73 O           22.6910    40.0080     9.8390 O             1 RES     
      74 O            9.2430    34.4260     5.6130 O             1 RES     
      75 Si          35.9510    45.0840     7.4200 Si            1 RES     
      76 O           13.0020    14.6690    10.0680 O             1 RES     
      77 Si          22.3030    18.2180     3.4300 Si            1 RES     
      78 O           38.6920    44.6600     9.9650 O             1 RES     
      79 Si           5.3750    36.6310     5.4460 Si            1 RES     
      80 O           31.6610     6.9240     7.6810 O             1 RES     
      81 O            2.1040    44.4950    11.9170 O             1 RES     
      82 O           33.2710    37.6820     4.3090 O             1 RES     
      83 O           34.7990    41.8550    10.2240 O             1 RES     
      84 Si          20.4020    45.1770     4.5950 Si            1 RES     
      85 Si          30.0820    17.9670     7.9450 Si            1 RES     
      86 O           30.5780    43.3520     7.2540 O             1 RES     
      87 O           19.3900    32.4830    10.8440 O             1 RES     
      88 O           38.7970    47.0110    10.9690 O             1 RES     
      89 Si          39.4990    19.3740     8.7080 Si            1 RES     
      90 O           42.9490    38.5760     2.4350 O             1 RES     
      91 Si           3.8240    29.5800     7.9930 Si            1 RES     
      92 O           26.1210     8.9700    12.5670 O             1 RES     
      93 O           37.3440     8.4030     7.9400 O             1 RES     
      94 O           15.1020    37.0500     8.0510 O             1 RES     
      95 O            9.6790     3.5510     2.8980 O             1 RES     
      96 O           31.5790    43.9430     3.5960 O             1 RES     
      97 Si          35.8900    12.3490     5.6510 Si            1 RES     
      98 O            4.2640     9.0260     4.7800 O             1 RES     
      99 O           44.0270    15.3980     4.9560 O             1 RES     
     100 O           38.3090    33.0360    11.9640 O             1 RES     
     101 Si          32.8510    29.5180    12.2650 Si            1 RES     
     102 O           22.9350    41.4540     7.9210 O             1 RES     
     103 O           30.0370    49.7050     3.3810 O             1 RES     
     104 Si           3.5000    38.7530     4.4320 Si            1 RES     
     105 O           38.2010    10.6540     7.5920 O             1 RES     
     106 O            9.7210    44.1600     8.4230 O             1 RES     
     107 O           38.4650    25.9060     8.1340 O             1 RES     
     108 O            6.0940    16.2190     8.6880 O             1 RES     
     109 O           41.3560    36.3370    10.0850 O             1 RES     
     110 Si          15.1630    35.7140     7.3010 Si            1 RES     
     111 O            7.6490    16.0520    13.1470 O             1 RES     
     112 O           31.1850     7.8320     5.0870 O             1 RES     
     113 O           24.1550    46.1000     8.5750 O             1 RES     
     114 O            8.2810     6.0230    12.1260 O             1 RES     
     115 O           45.3310    24.4320     9.8760 O             1 RES     
     116 Si          25.6960    37.4590     8.8510 Si            1 RES     
     117 O            2.2070    13.1450    12.8520 O             1 RES     
     118 O           49.6470    15.8970     1.3740 O             1 RES     
     119 Si          15.9380    32.7240     8.1010 Si            1 RES     
     120 Si           7.5200    44.1720    12.3700 Si            1 RES     
     121 O           30.4440    23.0700     5.2210 O             1 RES     
     122 O           46.7050    47.7370     5.0130 O             1 RES     
     123 O           11.4490     7.4630     8.7760 O             1 RES     
     124 Si          23.7950     1.6760     6.8390 Si            1 RES     
     125 O            2.8600    30.0720     9.2260 O             1 RES     
     126 Si          21.9800    30.9280     3.3940 Si            1 RES     
     127 O           24.3500    18.9630     7.6670 O             1 RES     
     128 Si          22.5320    25.0840     4.1390 Si            1 RES     
     129 O            3.2820     9.1310    10.0050 O             1 RES     
     130 Si          18.5560    33.6670    11.4620 Si            1 RES     
     131 O           39.1110    21.6780     2.3750 O             1 RES     
     132 O           17.6690    29.6720     7.1160 O             1 RES     
     133 Si          20.2150     6.4960     4.7090 Si            1 RES     
     134 Si          26.0590    40.8180     5.8490 Si            1 RES     
     135 O           28.9650    38.7850    10.2090 O             1 RES     
     136 O           40.1500    16.6990     2.3940 O             1 RES     
     137 Si          49.4280     0.5340     8.6050 Si            1 RES     
     138 O            4.7720    21.7590     6.4550 O             1 RES     
     139 O           24.2530    33.2980     7.8670 O             1 RES     
     140 Si          10.7020    30.7490     6.1000 Si            1 RES     
     141 O           42.6700     5.6730     5.2900 O             1 RES     
     142 Si          14.2700    49.9640    11.6860 Si            1 RES     
     143 O            6.6100    21.1300    10.0300 O             1 RES     
     144 O           49.4510    11.8250    10.8060 O             1 RES     
     145 O           41.1260    13.8420     9.8870 O             1 RES     
     146 O           45.6810    15.0260     7.0230 O             1 RES     
     147 O           46.7460    26.3010     8.8480 O             1 RES     
     148 O           27.8520    30.1570     5.1630 O             1 RES     
     149 O           14.0080    16.7380     5.3380 O             1 RES     
     150 Si          13.3490    24.6240     3.2190 Si            1 RES     
     151 O           25.9020    34.8710     4.4290 O             1 RES     
     152 O           20.1230     4.8830     4.5910 O             1 RES     
     153 O           34.1470    15.1210    11.3000 O             1 RES     
     154 Si           1.3730    22.1510     2.9220 Si            1 RES     
     155 O           49.7900    25.9860     3.1710 O             1 RES     
     156 O           32.2150    27.3290     8.7490 O             1 RES     
     157 O           42.4190    13.5680     5.7240 O             1 RES     
     158 O           37.2140     5.2770     9.2580 O             1 RES     
     159 OS           0.6460    27.9250    13.3760 OS            1 RES     
     160 Si           0.8110    19.1590     9.6580 Si            1 RES     
     161 O           30.5330    18.1760     4.0030 O             1 RES     
     162 O           41.9850    33.4010     8.8860 O             1 RES     
     163 OS           6.9590    38.8170    12.1150 OS            1 RES     
     164 O           23.5630    28.8290     6.0310 O             1 RES     
     165 Si          36.8960     6.1620    10.4730 Si            1 RES     
     166 OS          30.9060    42.8970    12.8760 OS            1 RES     
     167 O           22.3450    33.7720    10.4280 O             1 RES     
     168 Si          38.7720    49.4470     3.8340 Si            1 RES     
     169 Si          20.6320    28.6790    11.6590 Si            1 RES     
     170 O           29.1060     9.9070     8.0490 O             1 RES     
     171 O            4.3300    16.1090     6.8260 O             1 RES     
     172 Si          46.1970     8.4660     8.6420 Si            1 RES     
     173 O           31.4770    20.9200    10.3250 O             1 RES     
     174 O           23.6740    13.7090     7.1970 O             1 RES     
     175 O           25.7850    16.0530    11.2930 O             1 RES     
     176 Si          25.0720     2.0650    11.2810 Si            1 RES     
     177 O            6.5130    12.3630    10.0980 O             1 RES     
     178 O           31.2430    26.1310     6.4910 O             1 RES     
     179 O           29.5560    43.4330     4.9100 O             1 RES     
     180 O            5.5290    29.6980     4.5780 O             1 RES     
     181 Si          12.1290    29.9390     9.9840 Si            1 RES     
     182 Si          42.9810    42.5610    10.5600 Si            1 RES     
     183 O            0.0220    14.5270     4.1100 O             1 RES     
     184 O           27.5270     6.1070     3.8020 O             1 RES     
     185 OS          12.7250     3.7090    12.4850 OS            1 RES     
     186 Si           9.4180     2.8310    10.8570 Si            1 RES     
     187 O           31.6600    36.1520    10.5500 O             1 RES     
     188 Si          18.5290    31.0570     7.4200 Si            1 RES     
     189 O           22.9530    45.1110    10.9490 O             1 RES     
     190 O           47.5310    28.1790     7.5710 O             1 RES     
     191 O           22.0970     2.9560     3.5790 O             1 RES     
     192 O           23.9750    47.1680     6.4300 O             1 RES     
     193 Si          35.6350     7.7970     5.0950 Si            1 RES     
     194 Si          15.2560    25.1420    10.4270 Si            1 RES     
     195 O           18.6580    35.0890    10.6360 O             1 RES     
     196 OS          20.2660    37.5690    13.8000 OS            1 RES     
     197 O           29.7200    18.0810    12.3670 O             1 RES     
     198 O           26.0000    19.8770     4.2940 O             1 RES     
     199 O           41.0400     2.2550     8.1180 O             1 RES     
     200 Si          26.5050     9.2230     5.5330 Si            1 RES     
     201 O           36.9120    40.4130    10.7990 O             1 RES     
     202 O           20.7340    15.2520     4.9050 O             1 RES     
     203 O           19.4960    18.3400    10.8120 O             1 RES     
     204 O           22.9330     2.9620     7.0930 O             1 RES     
     205 OS          46.3160    48.9330    13.3120 OS            1 RES     
     206 O           25.5590    23.5770     6.4960 O             1 RES     
     207 O           34.9440    48.6380    11.0810 O             1 RES     
     208 Si          25.5740    19.7440    11.9030 Si            1 RES     
     209 O            0.6750    30.5180    10.5840 O             1 RES     
     210 Si          19.9420     6.1710     7.7720 Si            1 RES     
     211 Si          23.1990    12.0790     3.8050 Si            1 RES     
     212 O           30.8380     5.4450     5.9680 O             1 RES     
     213 O           45.9100     7.5290     7.3860 O             1 RES     
     214 Si           3.6840    12.8230    12.3480 Si            1 RES     
     215 OS          18.8100    44.6700    12.2700 OS            1 RES     
     216 Si          38.0060    11.3040     9.0220 Si            1 RES     
     217 O           20.9740    36.1480     4.3800 O             1 RES     
     218 O           33.5230    45.4890     2.9160 O             1 RES     
     219 Si           9.2410    45.5480     3.3790 Si            1 RES     
     220 Si          34.3650     5.5360    12.3320 Si            1 RES     
     221 Si          39.6160    25.8090     3.1450 Si            1 RES     
     222 O           28.8550    16.9830     8.2740 O             1 RES     
     223 Si          10.8730    25.4460     9.4090 Si            1 RES     
     224 OS           2.9380    27.3670    13.5110 OS            1 RES     
     225 OS          33.3940    45.2420    13.7960 OS            1 RES     
     226 Si          45.8650    31.8970     2.7980 Si            1 RES     
     227 O           43.3990     5.4610    10.9030 O             1 RES     
     228 O           45.3100    32.5620     6.9560 O             1 RES     
     229 O           21.8170    45.9040     5.1190 O             1 RES     
     230 O           42.0710    47.7170     9.4400 O             1 RES     
     231 Si          35.4420    32.0520     7.3890 Si            1 RES     
     232 O           45.1310    14.1860     9.3770 O             1 RES     
     233 O           13.7230     1.3210    12.2550 O             1 RES     
     234 O           28.4180    12.2310     8.3410 O             1 RES     
     235 O           48.1150     3.6560     3.2300 O             1 RES     
     236 O           24.3630    21.2010     2.9820 O             1 RES     
     237 Si           0.4750    39.2730     4.6870 Si            1 RES     
     238 Si          49.8290    17.2240    12.6160 Si            1 RES     
     239 O           11.8830    42.9360     5.5030 O             1 RES     
     240 O           48.1000    18.5900     5.2710 O             1 RES     
     241 Si          13.5760    45.1310     8.3190 Si            1 RES     
     242 O            7.9420    29.6150     8.5510 O             1 RES     
     243 O           19.4490    16.2870     9.2650 O             1 RES     
     244 O           21.8720    33.0660     6.7000 O             1 RES     
     245 Si          28.1680    32.5160     7.8900 Si            1 RES     
     246 O            9.3260    14.7530     6.8240 O             1 RES     
     247 Si          33.4080    23.7200     8.8770 Si            1 RES     
     248 O           22.0920    20.6210     7.5910 O             1 RES     
     249 O            3.4620     6.4040    10.5250 O             1 RES     
     250 Si          37.3120    24.5400    11.4470 Si            1 RES     
     251 O           26.2140    25.8960    11.8030 O             1 RES     
     252 Si          39.0690    17.2800     3.3630 Si            1 RES     
     253 O           38.6180    34.2620     4.5350 O             1 RES     
     254 Si          37.6040    34.2130     3.3530 Si            1 RES     
     255 O            0.7970    42.5890     7.7990 O             1 RES     
     256 O           22.2110    13.2820     3.8790 O             1 RES     
     257 O            3.3010    42.0190     7.2270 O             1 RES     
     258 O           42.6960    40.5310     3.8590 O             1 RES     
     259 Si          17.0000     5.1450     8.0970 Si            1 RES     
     260 O           47.1890    25.8760     6.4000 O             1 RES     
     261 O           42.6210    18.3830    10.7470 O             1 RES     
     262 O            8.0760    15.1190     4.6190 O             1 RES     
     263 Si          45.0950    38.4250    10.3500 Si            1 RES     
     264 O           45.8150     0.0320     1.4580 O             1 RES     
     265 Si          12.9980    31.8610     7.7030 Si            1 RES     
     266 O           18.4430    18.7220     8.4660 O             1 RES     
     267 O           24.4370    16.7460     6.5860 O             1 RES     
     268 Si          14.9540    12.9100     6.0530 Si            1 RES     
     269 O           14.9650    18.7910     9.9840 O             1 RES     
     270 O           37.9870    44.9430    12.3720 O             1 RES     
     271 Si          24.7280    26.1950    11.4530 Si            1 RES     
     272 O           47.3630    32.9210     8.3330 O             1 RES     
     273 O           32.0960    16.7640    11.4900 O             1 RES     
     274 O           34.8860    47.1780    12.9650 O             1 RES     
     275 O           12.7500    15.3170     3.5650 O             1 RES     
     276 O           35.1600    41.7720     5.1760 O             1 RES     
     277 O           46.3020    43.3040     9.1230 O             1 RES     
     278 O           21.4630    14.5980     8.6160 O             1 RES     
     279 O           38.8250    47.9060     3.5560 O             1 RES     
     280 O           33.4650     1.9990     3.7860 O             1 RES     
     281 O           27.3030    14.6550     8.4230 O             1 RES     
     282 O           24.3010    27.5890    11.8080 O             1 RES     
     283 O           18.4060    47.3430    11.6440 O             1 RES     
     284 O            6.4100    19.6400     5.3440 O             1 RES     
     285 Si          48.5780    19.7920     6.0330 Si            1 RES     
     286 Si          13.2120     6.2720     4.4060 Si            1 RES     
     287 Si          38.8670    43.7710     3.9090 Si            1 RES     
     288 O           16.1730    35.9180     6.1790 O             1 RES     
     289 Si          46.9800     2.9410     3.9820 Si            1 RES     
     290 O           16.4210    48.9450     5.2640 O             1 RES     
     291 O           49.7980    38.4060    12.4830 O             1 RES     
     292 Si          28.4320     0.9860     9.0180 Si            1 RES     
     293 O            3.7910    19.2340    12.2220 O             1 RES     
     294 Si          37.3810    14.3720     9.2660 Si            1 RES     
     295 O           39.6090    17.1140     4.7570 O             1 RES     
     296 O           18.9850    23.2030     4.9360 O             1 RES     
     297 O           33.3830    29.5890     8.6530 O             1 RES     
     298 Si           6.5040    34.3540     3.6440 Si            1 RES     
     299 O           10.6390    41.7210    12.3230 O             1 RES     
     300 Si          21.8010    23.4750    10.1490 Si            1 RES     
     301 O           32.1880     2.9370    11.0530 O             1 RES     
     302 O           48.2850    37.1040     8.2830 O             1 RES     
     303 O           41.0400     2.3510    12.7430 O             1 RES     
     304 Si          23.6110    42.4730     6.8000 Si            1 RES     
     305 Si          39.1900    24.7630     8.9630 Si            1 RES     
     306 OS          23.5860    47.4960    12.0860 OS            1 RES     
     307 OS          35.6550    44.6830    12.9390 OS            1 RES     
     308 O           38.8090    10.5150     5.0240 O             1 RES     
     309 Si           7.5450    17.4300    12.2700 Si            1 RES     
     310 O           11.9280    10.0130     4.3980 O             1 RES     
     311 O           47.4460    12.9720    12.0550 O             1 RES     
     312 O           16.4350     1.3450     6.4240 O             1 RES     
     313 Si          10.3130    11.8920    10.4020 Si            1 RES     
     314 OS          11.2070    32.3640    13.4470 OS            1 RES     
     315 O           23.7810    46.8420     3.9060 O             1 RES     
     316 OS          32.3080    40.5490    13.5250 OS            1 RES     
     317 Si          14.6130    39.8490    10.8620 Si            1 RES     
     318 O           23.8970    25.3580    12.4800 O             1 RES     
     319 Si           9.0190     4.2510     4.0900 Si            1 RES     
     320 O           25.1120    14.6520     5.4390 O             1 RES     
     321 Si          44.0140    36.7140     7.7550 Si            1 RES     
     322 OS          48.1550    10.7840    12.7930 OS            1 RES     
     323 OS          14.5800    10.1050    13.9600 OS            1 RES     
     324 OS          30.2540    15.4520    12.2440 OS            1 RES     
     325 O           15.1430    39.4530     9.4470 O             1 RES     
     326 Si          26.1430     3.1790     5.5820 Si            1 RES     
     327 O            0.4530     3.1480     6.2690 O             1 RES     
     328 O           46.8350    49.3910    10.9860 O             1 RES     
     329 O            4.0590    36.5990     8.4880 O             1 RES     
     330 Si          21.9700    14.8470     4.0010 Si            1 RES     
     331 Si           5.4830    21.8870    10.9520 Si            1 RES     
     332 O           12.9610    16.0130    12.0790 O             1 RES     
     333 Si          18.5110    45.7810    11.1700 Si            1 RES     
     334 OS          26.1120     6.5300    13.1560 OS            1 RES     
     335 O           28.9550    11.6580     3.8450 O             1 RES     
     336 O           16.8570     4.4800     9.5660 O             1 RES     
     337 O           12.2070    31.3180     6.4880 O             1 RES     
     338 Si           3.6610    47.9890     3.2660 Si            1 RES     
     339 O            2.3810    38.3960     9.2630 O             1 RES     
     340 O           16.4770    43.0330     5.4360 O             1 RES     
     341 O            8.4010    37.8400     9.9930 O             1 RES     
     342 Si          35.2360    26.0960     9.8200 Si            1 RES     
     343 O           28.3920    45.5220     9.3080 O             1 RES     
     344 Si           8.7650     9.9060     8.6400 Si            1 RES     
     345 Si          31.1860    40.2060     4.6190 Si            1 RES     
     346 O           33.9620     9.7730    11.3540 O             1 RES     
     347 Si          29.9290    38.9810    11.4220 Si            1 RES     
     348 O           12.6410    40.5630    10.4970 O             1 RES     
     349 O           46.4470    45.4640     8.5700 O             1 RES     
     350 O            3.8460    49.6770    12.4230 O             1 RES     
     351 O           11.9350    26.3070    10.1220 O             1 RES     
     352 O           34.7310    37.0780     7.2970 O             1 RES     
     353 O            9.9940    32.7270     3.7510 O             1 RES     
     354 OS          45.7050    12.9940    13.9360 OS            1 RES     
     355 Si          18.4620    19.7870     7.3990 Si            1 RES     
     356 O           11.2240    35.5340     6.4810 O             1 RES     
     357 O           43.9110    10.6470     6.2750 O             1 RES     
     358 O           45.5200    36.9650     7.4450 O             1 RES     
     359 O           42.3600    47.1630     6.9220 O             1 RES     
     360 OS          21.7830    13.9840    12.3470 OS            1 RES     
     361 Si          38.2540    43.6100     8.9210 Si            1 RES     
     362 OS          17.5590    27.3140    12.9220 OS            1 RES     
     363 O            3.3950    11.3600    11.7150 O             1 RES     
     364 Si           6.1610     4.5190     2.9570 Si            1 RES     
     365 Si          35.9990     4.7990     5.4630 Si            1 RES     
     366 O           40.4460     8.8940    11.2490 O             1 RES     
     367 Si          36.3780     8.7640     9.1110 Si            1 RES     
     368 Si           1.8180    27.6390    12.3530 Si            1 RES     
     369 OS          47.8010    37.1470    12.8070 OS            1 RES     
     370 OS          11.1920    45.1340    13.1630 OS            1 RES     
     371 O           48.1120    47.4380    10.4120 O             1 RES     
     372 O           39.5130    20.8610     8.2070 O             1 RES     
     373 OS           7.0610     3.7190    13.2660 OS            1 RES     
     374 O           26.4280    34.1630    11.4740 O             1 RES     
     375 Si          33.3770     3.5300     3.4640 Si            1 RES     
     376 O           36.1180    48.2970     8.6890 O             1 RES     
     377 O           46.7490    17.9500     3.0500 O             1 RES     
     378 O           41.6860    42.9810     6.6740 O             1 RES     
     379 O           37.4760    12.5040     5.3120 O             1 RES     
     380 Si          24.7900    13.2300     6.2040 Si            1 RES     
     381 OS          38.1530     4.6200    13.3710 OS            1 RES     
     382 O            9.6770    32.6350    11.3050 O             1 RES     
     383 Si          33.9690    22.8690     3.4780 Si            1 RES     
     384 O           43.9820    37.9620     9.3120 O             1 RES     
     385 Si          12.2740    34.9140     7.4100 Si            1 RES     
     386 O           25.0010    18.4920    11.1670 O             1 RES     
     387 O            2.7600    24.2130    10.4020 O             1 RES     
     388 O           42.9580    26.1660    11.8200 O             1 RES     
     389 O           45.1440    14.4450    11.7480 O             1 RES     
     390 Si          40.0110    39.8830     8.6920 Si            1 RES     
     391 OS           4.8870    30.6080    12.7110 OS            1 RES     
     392 O           36.7400    29.8300     5.2550 O             1 RES     
     393 Si          16.6150    44.7830     8.8650 Si            1 RES     
     394 O           14.1100    11.8590     9.6930 O             1 RES     
     395 O            2.0850    44.1560     6.4310 O             1 RES     
     396 Si          39.0470    45.4520    11.2560 Si            1 RES     
     397 Si          46.1120    42.6170    10.5030 Si            1 RES     
     398 Si          15.9470     2.3680     7.5480 Si            1 RES     
     399 O            9.2800    23.5000     7.5290 O             1 RES     
     400 OS          40.7000    34.4120    12.2590 OS            1 RES     
     401 O           37.3970    49.2820    10.3440 O             1 RES     
     402 O           27.2990     9.9210     4.3170 O             1 RES     
     403 O           47.5000    17.2100     9.6140 O             1 RES     
     404 O           10.7770    40.0520     8.7900 O             1 RES     
     405 Si          24.9320    24.8970     5.9010 Si            1 RES     
     406 Si          46.2280    36.8130    12.7060 Si            1 RES     
     407 OS          17.5710     7.1020    13.6460 OS            1 RES     
     408 O            3.9580    31.7320     3.9260 O             1 RES     
     409 O           30.0340    48.1820     5.4990 O             1 RES     
     410 Si           2.3960     0.3410    12.1610 Si            1 RES     
     411 Si           1.3740    24.8670    10.7920 Si            1 RES     
     412 O           32.8560    14.0160     5.4360 O             1 RES     
     413 O            5.0360    32.8140    11.2680 O             1 RES     
     414 O            4.3950     1.0660     5.6080 O             1 RES     
     415 Si          11.4700    14.6680     9.6650 Si            1 RES     
     416 O           45.4260    12.4360     7.7160 O             1 RES     
     417 Si          39.5160    33.9090    11.3150 Si            1 RES     
     418 O           42.7260    45.9040    11.9400 O             1 RES     
     419 OS          21.7830     5.7500    13.3060 OS            1 RES     
     420 O            3.4140    40.7410     9.3500 O             1 RES     
     421 O           34.3490    32.3610     3.7950 O             1 RES     
     422 OS           4.0670    45.7170    13.0380 OS            1 RES     
     423 O           16.5320    25.6030    11.2150 O             1 RES     
     424 O            8.3430    40.2150     9.8420 O             1 RES     
     425 O            4.0360    25.3720     8.7120 O             1 RES     
     426 O           30.6800    45.8030     9.3590 O             1 RES     
     427 O           10.0900    10.7120     6.1550 O             1 RES     
     428 O           19.1940    17.1920     5.2050 O             1 RES     
     429 O           37.1160    48.2080    12.3700 O             1 RES     
     430 Si          11.3670    16.3290    12.1810 Si            1 RES     
     431 O           35.5170    49.9290     1.5800 O             1 RES     
     432 O            3.1960    13.4610     3.7560 O             1 RES     
     433 O            4.0060    30.3250     6.5690 O             1 RES     
     434 O           39.3020     0.3220     2.5230 O             1 RES     
     435 Si          39.5480    34.3190     5.9030 Si            1 RES     
     436 Si          19.5940    18.6870     4.7920 Si            1 RES     
     437 OS          15.5400    11.8900    12.5810 OS            1 RES     
     438 Si           3.2760    22.0430     6.8940 Si            1 RES     
     439 O            4.7160    44.8320     2.2930 O             1 RES     
     440 Si          16.4430     3.1290    10.4140 Si            1 RES     
     441 O           34.7450    20.4650     6.8190 O             1 RES     
     442 O           42.7410    49.4860     7.9210 O             1 RES     
     443 O            9.6600    25.8890     8.2980 O             1 RES     
     444 Si          14.1900    40.4600     5.9330 Si            1 RES     
     445 O            2.1890     7.9920     5.7940 O             1 RES     
     446 OS          16.4940    21.9160    12.0070 OS            1 RES     
     447 OS           8.7360    23.7110    12.1360 OS            1 RES     
     448 O            9.6740     3.0890     7.3500 O             1 RES     
     449 Si          45.4850     2.3080     9.1260 Si            1 RES     
     450 O           34.5530     1.7420     7.1130 O             1 RES     
     451 Si          47.6950    46.8240     4.1620 Si            1 RES     
     452 O            9.0940    31.8780     9.0570 O             1 RES     
     453 O           32.8540    11.6640    10.2560 O             1 RES     
     454 O           39.9370    12.6720     5.1830 O             1 RES     
     455 O           42.7870     7.5880     3.9020 O             1 RES     
     456 OS          41.5110    44.6970    13.8950 OS            1 RES     
     457 Si           3.5110    26.4870     7.6910 Si            1 RES     
     458 OS          28.0830    19.4000    14.1250 OS            1 RES     
     459 Si          45.3360    48.4560     5.2530 Si            1 RES     
     460 O           15.0890    16.2570    10.7830 O             1 RES     
     461 O            1.7470    25.2300     4.6450 O             1 RES     
     462 O           20.2430    49.6870    11.9420 O             1 RES     
     463 Si           1.9550    42.6290     6.7790 Si            1 RES     
     464 Si          21.5380     3.5220     7.4470 Si            1 RES     
     465 O           17.2980    45.0130    10.2930 O             1 RES     
     466 O           14.1450    39.2150     6.8920 O             1 RES     
     467 O           10.4990    19.3050     7.6740 O             1 RES     
     468 Si          14.9070     7.2060     6.9330 Si            1 RES     
     469 Si          28.6810    25.7310     9.3460 Si            1 RES     
     470 O           35.3300    30.3750     2.9760 O             1 RES     
     471 Si           8.6830    43.2050     7.6990 Si            1 RES     
     472 O           14.0870    29.7210     3.3030 O             1 RES     
     473 O           33.0820    22.8120    10.2330 O             1 RES     
     474 O           47.5190    36.2220     3.8790 O             1 RES     
     475 Si          28.5250     6.5820    10.1990 Si            1 RES     
     476 O           10.7470    36.0950    11.4710 O             1 RES     
     477 Si          47.4500    17.4220     4.3660 Si            1 RES     
     478 O           28.1610    15.8470     6.3670 O             1 RES     
     479 OS           1.1650    22.8170    14.2730 OS            1 RES     
     480 O           44.8110     0.9100     8.5730 O             1 RES     
     481 O           18.5750    27.3960     6.6910 O             1 RES     
     482 O           26.1090     3.3020     3.9990 O             1 RES     
     483 Si          42.6060    34.7230     9.4340 Si            1 RES     
     484 Si          45.3720    10.9610     7.0310 Si            1 RES     
     485 O           22.5860    29.5690     3.9380 O             1 RES     
     486 Si          40.2970    31.3540     6.4800 Si            1 RES     
     487 Si           6.0960    33.9830    10.8440 Si            1 RES     
     488 O           12.7440    30.9830     8.8940 O             1 RES     
     489 OS          46.1210     1.2430    12.8700 OS            1 RES     
     490 O           26.2930    30.5420     3.2220 O             1 RES     
     491 O            7.8820    24.5560     9.3200 O             1 RES     
     492 O           27.0360    22.2950     8.3600 O             1 RES     
     493 O           25.2950     0.7040    10.3780 O             1 RES     
     494 Si          24.9280    17.5040     7.8380 Si            1 RES     
     495 O           48.6180     4.1440    10.7340 O             1 RES     
     496 O           25.6520    28.5460     7.8160 O             1 RES     
     497 O           19.8470    24.9840     6.4890 O             1 RES     
     498 Si          41.6370    12.8030    10.9200 Si            1 RES     
     499 Si          35.3520     1.3890    12.1150 Si            1 RES     
     500 Si          46.8970    37.7350     7.7620 Si            1 RES     
     501 O            5.3780    35.8640     6.8210 O             1 RES     
     502 O           45.1740    27.8150     2.8680 O             1 RES     
     503 Si          43.8770    27.3760    11.5510 Si            1 RES     
     504 Si          12.5270     8.5340     8.2720 Si            1 RES     
     505 O            3.5620    28.0480     7.7900 O             1 RES     
     506 O            5.2150    22.8920     2.7460 O             1 RES     
     507 O           46.5290    22.0670     9.2400 O             1 RES     
     508 Si          13.1480    15.3560     5.0550 Si            1 RES     
     509 O           24.9450    29.7810    11.9010 O             1 RES     
     510 O            0.0590    17.7840     9.3110 O             1 RES     
     511 O           19.1170    13.8090     9.2550 O             1 RES     
     512 O            4.0670    37.3420     4.9070 O             1 RES     
     513 O           36.9140    10.2500     9.4460 O             1 RES     
     514 O           35.5640     6.3480     5.5660 O             1 RES     
     515 OS          29.1860    38.1350    12.6570 OS            1 RES     
     516 Si          31.8730    37.3300     3.6020 Si            1 RES     
     517 O           42.7740     3.8650     8.6890 O             1 RES     
     518 O           36.2550    26.7060     8.7730 O             1 RES     
     519 Si          14.0130    15.1700    11.1740 Si            1 RES     
     520 OS           3.7870    16.7630    12.8830 OS            1 RES     
     521 Si          48.5450     5.0490    12.0960 Si            1 RES     
     522 O           40.6880    22.2130     4.0540 O             1 RES     
     523 O           14.5790    32.1970     7.4600 O             1 RES     
     524 O           40.8770    38.5600     8.8240 O             1 RES     
     525 Si          30.0510    19.2360     5.0320 Si            1 RES     
     526 O           32.2550     8.4950     2.8570 O             1 RES     
     527 O           45.1300    32.9420     1.8010 O             1 RES     
     528 O           23.0200    32.1490    12.2200 O             1 RES     
     529 Si           6.2410    43.4290     9.5200 Si            1 RES     
     530 Si          26.1320    27.2990     4.2450 Si            1 RES     
     531 O           39.7030    43.2250     8.3650 O             1 RES     
     532 O            8.5980    46.3720     2.2240 O             1 RES     
     533 Si          34.6490     3.1510     7.7220 Si            1 RES     
     534 O           15.1550    11.3100     5.9300 O             1 RES     
     535 Si           5.3720    10.0700     4.4590 Si            1 RES     
     536 O           42.3490     7.4910    12.1660 O             1 RES     
     537 OS          15.4210    40.4660    12.0290 OS            1 RES     
     538 O            5.0060     4.4480     4.0530 O             1 RES     
     539 O           19.4280    45.2850     5.8050 O             1 RES     
     540 O           44.4440    46.5930    10.0370 O             1 RES     
     541 O           49.3310    32.3570     9.5320 O             1 RES     
     542 O           30.1120    26.0840     8.9200 O             1 RES     
     543 O           10.4160     1.0990     2.8170 O             1 RES     
     544 O            5.6430    34.8800     9.6260 O             1 RES     
     545 O           10.6130    29.6900     9.5080 O             1 RES     
     546 O           38.9430    30.5190     6.3560 O             1 RES     
     547 O           10.5100     8.1880     5.4640 O             1 RES     
     548 O           18.0080    49.7870    12.4920 O             1 RES     
     549 O           29.9750    18.5390     6.4630 O             1 RES     
     550 Si          43.5010     6.3350    12.2980 Si            1 RES     
     551 O           31.0460    33.8030     5.5130 O             1 RES     
     552 O            8.9270    11.8520    11.1040 O             1 RES     
     553 O           22.6540     0.6510     6.3860 O             1 RES     
     554 O           45.1230    32.2190     9.7350 O             1 RES     
     555 O           15.4250     8.6330     6.4840 O             1 RES     
     556 O           24.3040    33.2740     3.2250 O             1 RES     
     557 O           49.8890    13.0660     8.7600 O             1 RES     
     558 Si           8.1590    11.0630     5.8820 Si            1 RES     
     559 Si           9.7230     6.6800    12.0750 Si            1 RES     
     560 Si          28.4790     8.4120     7.7260 Si            1 RES     
     561 Si           0.5120     7.5370    12.0020 Si            1 RES     
     562 O            9.6710     5.6550     4.5980 O             1 RES     
     563 O           47.4550    13.8010     8.3070 O             1 RES     
     564 O           18.8750    25.6890    11.5620 O             1 RES     
     565 Si           9.6420    29.2860     3.6580 Si            1 RES     
     566 O            6.7420    27.7270     7.4510 O             1 RES     
     567 Si           7.3690    11.2960    10.8940 Si            1 RES     
     568 Si          30.6730    32.5360     9.5370 Si            1 RES     
     569 O           12.3410    33.3180     7.6750 O             1 RES     
     570 Si           5.5320    36.0130     8.4250 Si            1 RES     
     571 Si          23.0290    43.0570    11.1760 Si            1 RES     
     572 Si          40.9590     8.1710     7.5530 Si            1 RES     
     573 OS          19.6480    48.2890    13.7740 OS            1 RES     
     574 O           34.4150    22.6970     5.0520 O             1 RES     
     575 O           21.5930     3.0260     9.0560 O             1 RES     
     576 Si          35.2580    14.0110    11.5060 Si            1 RES     
     577 O           15.8700    32.0780     9.6110 O             1 RES     
     578 O           27.1660    18.1990     2.9840 O             1 RES     
     579 O            2.9420    29.6550     4.5650 O             1 RES     
     580 Si          41.6730    43.7280     5.2710 Si            1 RES     
     581 O           39.1920     0.5770     7.9150 O             1 RES     
     582 O           12.7510    19.8360     9.1320 O             1 RES     
     583 O           21.9460    42.2760    10.3200 O             1 RES     
     584 O           14.1980    38.2730     2.9000 O             1 RES     
     585 O           29.3360    32.1020     8.8840 O             1 RES     
     586 O           49.7930    10.4860     8.6050 O             1 RES     
     587 O           26.2920    12.6820     9.6340 O             1 RES     
     588 O            9.8200    25.0990    10.5220 O             1 RES     
     589 Si          27.4390    19.6000     3.5680 Si            1 RES     
     590 O            6.6230    14.8530     6.6910 O             1 RES     
     591 O            8.6230    49.0540    10.4420 O             1 RES     
     592 O           44.8180    26.8060    10.4470 O             1 RES     
     593 O           34.5170    24.8560     9.2050 O             1 RES     
     594 O           20.2360     9.1000    10.6340 O             1 RES     
     595 OS          32.3420    21.8730    12.6260 OS            1 RES     
     596 Si          25.7150    41.7100     2.8710 Si            1 RES     
     597 O           34.9960    19.4610     9.2060 O             1 RES     
     598 Si          41.4990    19.5180    11.1150 Si            1 RES     
     599 Si          15.2730    10.2900    12.5260 Si            1 RES     
     600 O           36.2120    18.2560     7.4380 O             1 RES     
     601 O           29.3970    36.5730     9.2700 O             1 RES     
     602 O            5.0300    23.2810    10.2570 O             1 RES     
     603 Si           0.3920    42.2210     4.1890 Si            1 RES     
     604 O            2.2260    26.4020     2.4270 O             1 RES     
     605 O           49.4230    18.8260    12.6940 O             1 RES     
     606 O           27.1160    27.9850     5.1480 O             1 RES     
     607 Si           8.2650    40.9430     4.4180 Si            1 RES     
     608 O           41.1300    22.0980     6.6650 O             1 RES     
     609 O           45.5570    31.9600     4.3400 O             1 RES     
     610 O            0.1660    19.6860     6.1490 O             1 RES     
     611 Si          33.2720     8.2920    11.3850 Si            1 RES     
     612 O           22.7000     0.6170     4.0170 O             1 RES     
     613 O           13.0960    47.7250     5.9260 O             1 RES     
     614 Si          22.7790     1.7000     2.8520 Si            1 RES     
     615 O           16.3630    13.3470     5.6630 O             1 RES     
     616 O           30.9870    48.2450    10.0420 O             1 RES     
     617 O           37.2390    49.7590     3.5030 O             1 RES     
     618 Si          30.8900    16.7310     3.3720 Si            1 RES     
     619 O           26.4990    44.3450     9.2110 O             1 RES     
     620 O           49.2220    26.2600     7.9750 O             1 RES     
     621 O            3.4010    39.1840    11.4160 O             1 RES     
     622 O           33.9070    31.6450     7.3760 O             1 RES     
     623 O           43.4510    15.8270    10.1300 O             1 RES     
     624 Si          46.0430    25.0580     5.6030 Si            1 RES     
     625 O            1.8810    26.1950     7.7000 O             1 RES     
     626 O           17.3560     2.2180    11.3970 O             1 RES     
     627 O            7.1550    17.3080     4.0380 O             1 RES     
     628 Si          42.4350    10.2010     5.9260 Si            1 RES     
     629 Si          40.6900     3.0210    11.3890 Si            1 RES     
     630 O           19.3480     0.7980     2.3270 O             1 RES     
     631 O           19.9280    29.8800    10.9250 O             1 RES     
     632 O           19.4570    20.9430     7.8900 O             1 RES     
     633 O           10.7040    13.2600     9.7220 O             1 RES     
     634 Si           0.4770     1.6020     5.9420 Si            1 RES     
     635 O            9.4100     1.3120    10.7100 O             1 RES     
     636 Si          18.7360    17.6360     9.5480 Si            1 RES     
     637 O            5.7520    47.8330    12.9800 O             1 RES     
     638 O           19.8340     7.1440     8.9810 O             1 RES     
     639 Si          18.1230     8.5540     3.6600 Si            1 RES     
     640 Si           8.9940    33.1040    10.0430 Si            1 RES     
     641 O           35.6350    37.2760     4.9160 O             1 RES     
     642 O           43.9320    30.7370     6.0400 O             1 RES     
     643 Si          10.3410    36.8300     3.1460 Si            1 RES     
     644 OS          33.7480    33.1240    13.3250 OS            1 RES     
     645 Si           7.3310    43.7630     4.9050 Si            1 RES     
     646 O           12.4480    23.4040     3.5910 O             1 RES     
     647 Si          11.1820    20.0760     8.8680 Si            1 RES     
     648 O           32.3270    36.7830     2.1510 O             1 RES     
     649 Si          26.8970    32.7770    12.0530 Si            1 RES     
     650 O           31.1770    38.7570     3.8720 O             1 RES     
     651 O           42.7610    36.9040     6.8720 O             1 RES     
     652 O            0.1790    45.8030    11.0080 O             1 RES     
     653 O           14.9690    39.8680     4.7060 O             1 RES     
     654 Si          26.2080    35.7160    11.4330 Si            1 RES     
     655 O           33.8200     1.8110    12.2470 O             1 RES     
     656 O           32.2410    24.6310     8.4590 O             1 RES     
     657 O           44.9250     6.9980    12.2900 O             1 RES     
     658 Si          10.0470     6.9750     9.0140 Si            1 RES     
     659 O            4.9290    13.9990     8.3470 O             1 RES     
     660 Si          23.0970    34.0080     6.9800 Si            1 RES     
     661 O           35.3680    49.2480     6.6070 O             1 RES     
     662 O           38.6330     3.1870     8.2330 O             1 RES     
     663 O            9.6790    38.1050     2.4130 O             1 RES     
     664 O           24.3640    25.9410     9.8980 O             1 RES     
     665 Si           1.3860     4.4330     6.3760 Si            1 RES     
     666 O           36.0720    25.4030    10.9870 O             1 RES     
     667 Si          33.3970     0.4560     4.1020 Si            1 RES     
     668 O           47.7770    45.4010     4.5940 O             1 RES     
     669 O           49.6460     0.9140     7.0600 O             1 RES     
     670 Si          49.7490    42.7510     8.8430 Si            1 RES     
     671 OS          47.7090    20.8010    12.2820 OS            1 RES     
     672 O           21.0710     5.0660     7.7670 O             1 RES     
     673 Si          17.6200     8.2770    12.5210 Si            1 RES     
     674 O           23.8990     8.0890     8.4830 O             1 RES     
     675 O           44.9940     6.8110     5.0230 O             1 RES     
     676 O           38.3840    27.7090     9.6910 O             1 RES     
     677 Si           2.3000    49.5910     9.1770 Si            1 RES     
     678 O           11.0760    17.9080    12.0650 O             1 RES     
     679 Si           2.4870    45.5200     5.7490 Si            1 RES     
     680 O            5.1070    13.1130     2.0220 O             1 RES     
     681 O           17.3130    17.3870    10.0950 O             1 RES     
     682 O           38.8030    18.8680     3.1010 O             1 RES     
     683 O            6.2230     5.3790     1.6200 O             1 RES     
     684 O           33.8930    37.3990    11.2720 O             1 RES     
     685 OS          35.5880    37.9490    13.8270 OS            1 RES     
     686 OS           5.7350    22.1460    12.4840 OS            1 RES     
     687 Si          30.0550    20.4620     9.8690 Si            1 RES     
     688 O            6.6910    21.9270     4.9560 O             1 RES     
     689 O           17.7340    21.6430     3.5230 O             1 RES     
     690 O           19.7000    45.8050    10.1940 O             1 RES     
     691 O           21.0350    10.2870     8.9720 O             1 RES     
     692 Si           0.3040    11.6260     9.5100 Si            1 RES     
     693 Si          47.8920    39.8850     5.9730 Si            1 RES     
     694 Si          25.8660    44.0270    10.5700 Si            1 RES     
     695 O            3.1940     0.0020     7.9500 O             1 RES     
     696 O           33.6470    34.4260     4.8550 O             1 RES     
     697 Si          30.7270    42.4020     8.4770 Si            1 RES     
     698 Si          34.7700    37.8690     3.8180 Si            1 RES     
     699 O           29.2810    20.1280    11.1720 O             1 RES     
     700 O           18.3850    35.8390     4.7270 O             1 RES     
     701 Si          45.2900    25.8680     9.3100 Si            1 RES     
     702 Si          42.5050    22.3130    10.4510 Si            1 RES     
     703 Si          15.7320    29.5360     3.7050 Si            1 RES     
     704 Si           9.6690    47.8430     5.4930 Si            1 RES     
     705 O           12.3740    48.9220     8.1810 O             1 RES     
     706 O           24.6360     0.9360     7.9300 O             1 RES     
     707 O           19.8080     3.0050     3.2320 O             1 RES     
     708 O           35.4430     0.0010    12.9260 O             1 RES     
     709 O            6.8130    27.9240     9.9120 O             1 RES     
     710 O           36.6000    38.8690     6.7020 O             1 RES     
     711 Si          10.1060    19.0830    11.7060 Si            1 RES     
     712 O           19.5560    15.3870     7.1320 O             1 RES     
     713 O           13.4780    47.4240     3.3610 O             1 RES     
     714 OS          33.1620    11.7520    13.1050 OS            1 RES     
     715 O           10.6930    26.6800     1.2410 O             1 RES     
     716 O           22.8730    22.8310    11.1670 O             1 RES     
     717 O           11.8470    21.1590     4.2940 O             1 RES     
     718 Si          21.9760    12.3940    12.3550 Si            1 RES     
     719 O           12.8560     9.6200     9.3420 O             1 RES     
     720 Si          15.5080    38.7700     3.6850 Si            1 RES     
     721 O           37.2780    42.6790     9.7680 O             1 RES     
     722 O            8.5470    10.3990     4.4330 O             1 RES     
     723 O            4.3780    46.6300     8.9120 O             1 RES     
     724 O           29.9050    45.6210     6.1860 O             1 RES     
     725 Si          33.6080    14.0500     6.7690 Si            1 RES     
     726 O            6.9040    14.7780     2.4800 O             1 RES     
     727 O           17.7290    46.9900     5.8550 O             1 RES     
     728 O           13.0630     2.0570     5.8520 O             1 RES     
     729 O           14.9550    20.6690     8.2220 O             1 RES     
     730 O           26.1070    41.4050     4.3750 O             1 RES     
     731 O           26.7350    26.8440     2.9100 O             1 RES     
     732 O           30.0560     2.9350     5.7890 O             1 RES     
     733 O           45.2980    21.2120     4.8160 O             1 RES     
     734 O            9.9770    10.8910     9.1250 O             1 RES     
     735 Si          15.7720    32.3240    11.1840 Si            1 RES     
     736 O           25.9570    32.4380     4.9530 O             1 RES     
     737 O           49.6260    38.0500     4.0950 O             1 RES     
     738 Si          27.7560    22.5190     3.0090 Si            1 RES     
     739 O            6.1310    18.0340    12.6980 O             1 RES     
     740 Si          29.6580    12.5070     4.9570 Si            1 RES     
     741 Si          20.6900     3.4160     4.4270 Si            1 RES     
     742 O           18.0140    37.6140     6.4480 O             1 RES     
     743 Si           7.4400    49.6480     6.7860 Si            1 RES     
     744 O           11.4600    42.1930     3.2080 O             1 RES     
     745 O            7.4840    42.2850     4.2520 O             1 RES     
     746 O           20.4090    41.3470     8.5420 O             1 RES     
     747 O           27.7690    15.8050     3.7780 O             1 RES     
     748 O           20.8050    22.5490     6.6200 O             1 RES     
     749 O           47.1940     9.1690     3.9050 O             1 RES     
     750 O           43.1990    32.2580    11.8910 O             1 RES     
     751 OS           2.5250     1.7930    12.7490 OS            1 RES     
     752 O           15.8720    31.1240     3.5680 O             1 RES     
     753 OS          36.9670    23.0980    12.0190 OS            1 RES     
     754 O           24.6860     5.7720     8.6550 O             1 RES     
     755 Si           3.3320    17.0320     2.8190 Si            1 RES     
     756 O           46.1960    19.5610     9.2260 O             1 RES     
     757 O            4.2990    11.6510     9.3740 O             1 RES     
     758 Si          43.9040    20.4480     4.8120 Si            1 RES     
     759 O           24.8680    35.8760    12.2940 O             1 RES     
     760 O           23.6580    18.9010     3.6840 O             1 RES     
     761 Si          14.1220    37.2970    12.4430 Si            1 RES     
     762 Si          48.3240     3.2150     9.4960 Si            1 RES     
     763 O            8.7600    45.0380    12.2370 O             1 RES     
     764 Si          35.3480    34.2110     9.5120 Si            1 RES     
     765 Si          47.0210     0.0510    12.4420 Si            1 RES     
     766 O           19.9310    33.8980     5.2210 O             1 RES     
     767 O            7.6010    34.5360     2.5650 O             1 RES     
     768 O           15.1770    44.2300     2.7320 O             1 RES     
     769 O           41.9330    37.9030     4.7360 O             1 RES     
     770 Si           6.2890    17.4690     9.5750 Si            1 RES     
     771 O           25.4360    11.1810    11.7760 O             1 RES     
     772 O           10.2860     1.4390     5.2360 O             1 RES     
     773 O           23.4720    43.8750     7.4750 O             1 RES     
     774 O            6.0160    44.9060     9.1190 O             1 RES     
     775 Si          12.5860     9.9290     3.0050 Si            1 RES     
     776 O            2.3750    15.4810     5.2860 O             1 RES     
     777 Si           5.0570    13.0090     9.6470 Si            1 RES     
     778 O           18.5420     5.3050     7.9260 O             1 RES     
     779 O           48.6410    43.7890     8.4790 O             1 RES     
     780 O           11.8310    30.9040    11.1600 O             1 RES     
     781 O           35.0670    13.4710     6.3520 O             1 RES     
     782 Si          42.0050    38.9920     3.5840 Si            1 RES     
     783 O            8.0640    40.0100     3.0870 O             1 RES     
     784 Si          28.7100    37.9400     8.8920 Si            1 RES     
     785 Si           1.4570     7.3840     7.0950 Si            1 RES     
     786 O           19.5950    31.6930     6.4870 O             1 RES     
     787 Si          20.2910    10.6330    10.3250 Si            1 RES     
     788 O           49.4830     9.5720     4.3120 O             1 RES     
     789 Si          49.2360    30.9390    10.2300 Si            1 RES     
     790 O           29.8460    41.2250     8.0550 O             1 RES     
     791 Si          19.0220    25.9820     7.4110 Si            1 RES     
     792 O           23.4690    13.3370     9.5400 O             1 RES     
     793 Si          23.9240    24.9980     8.7160 Si            1 RES     
     794 OS          33.2710    37.9530    13.2690 OS            1 RES     
     795 OS          22.4530    21.1830    13.0020 OS            1 RES     
     796 O           25.8540    25.8150     5.0220 O             1 RES     
     797 O           40.4720    31.4740     8.0220 O             1 RES     
     798 Si          49.0790     9.2880     7.9830 Si            1 RES     
     799 OS           6.2560     6.2770    13.5190 OS            1 RES     
     800 Si          34.2060    40.7980     4.4520 Si            1 RES     
     801 O           38.6100    37.7160     3.1690 O             1 RES     
     802 Si           7.0770    20.2490     8.8390 Si            1 RES     
     803 Si          48.9090    46.5840    11.4290 Si            1 RES     
     804 O           38.3370    26.5730     2.7100 O             1 RES     
     805 Si          34.5520     9.9310     7.0270 Si            1 RES     
     806 Si          20.0360    31.2220    10.1190 Si            1 RES     
     807 O            2.8930    22.2920     2.5400 O             1 RES     
     808 Si          27.6670    16.0710     7.8400 Si            1 RES     
     809 O           28.8060    13.8260     5.0430 O             1 RES     
     810 Si          24.8180    12.7050    10.9700 Si            1 RES     
     811 Si          48.9160    33.1910     8.2340 Si            1 RES     
     812 Si          19.3220    38.0950    12.5930 Si            1 RES     
     813 Si           1.9380    35.8990    11.6940 Si            1 RES     
     814 O           45.7460    37.2740    11.2740 O             1 RES     
     815 OS          41.7790    30.2140    12.0810 OS            1 RES     
     816 OS           9.6630    30.5690    12.2770 OS            1 RES     
     817 Si          19.9030    14.9890     8.5670 Si            1 RES     
     818 O           25.7710     4.4830     6.4720 O             1 RES     
     819 O           45.7780    22.3830    11.6510 O             1 RES     
     820 O           48.9850    32.2290     4.6010 O             1 RES     
     821 Si          37.7750    39.8480     6.4840 Si            1 RES     
     822 O            8.1810     1.0180     6.6000 O             1 RES     
     823 O            7.9860     9.8280     2.0970 O             1 RES     
     824 Si          29.5330    33.3360     5.4390 Si            1 RES     
     825 O           46.2350    23.4670     5.7550 O             1 RES     
     826 Si          17.2150    28.3100     6.4770 Si            1 RES     
     827 O           23.2530     7.7300     5.9480 O             1 RES     
     828 O           20.2230    41.7250     6.0320 O             1 RES     
     829 Si          14.1060     2.9270    12.3560 Si            1 RES     
     830 O           19.4250    26.0820     8.9530 O             1 RES     
     831 Si           7.2080    48.9900     9.7760 Si            1 RES     
     832 OS          13.0180    37.7460    13.3970 OS            1 RES     
     833 Si          49.0280    16.6680     9.7360 Si            1 RES     
     834 O           38.7140    39.7180     7.7470 O             1 RES     
     835 Si          30.7840    46.8420     5.9520 Si            1 RES     
     836 O           10.4830    29.8580     4.8470 O             1 RES     
     837 O           43.3200    41.9460     1.6670 O             1 RES     
     838 Si          18.2410    12.9120    10.1490 Si            1 RES     
     839 O           10.7840    43.1810    10.3760 O             1 RES     
     840 O           42.2450    42.8690     9.2390 O             1 RES     
     841 Si          28.5000    22.7930     8.3570 Si            1 RES     
     842 O            4.2370    21.0310    10.8790 O             1 RES     
     843 O           31.8450     8.4730    11.9550 O             1 RES     
     844 O           44.0220    22.2570     9.9290 O             1 RES     
     845 Si          39.1410    49.3650     6.8780 Si            1 RES     
     846 Si           5.3790     0.2450     4.5480 Si            1 RES     
     847 O            8.0870    10.3600     7.2540 O             1 RES     
     848 O           29.9120    43.3700     9.5960 O             1 RES     
     849 Si          43.3470    17.3420     9.7490 Si            1 RES     
     850 O           21.2180    38.5560     4.1250 O             1 RES     
     851 Si          46.2780    18.2610    10.0530 Si            1 RES     
     852 O           19.3690    39.5920     7.2420 O             1 RES     
     853 O           47.3990    13.5140     4.6950 O             1 RES     
     854 Si          29.8150    33.5000    12.2720 Si            1 RES     
     855 O           29.7090     4.6080     3.9520 O             1 RES     
     856 O           24.4790     6.5760     3.9720 O             1 RES     
     857 Si          45.4830     0.4720     2.9760 Si            1 RES     
     858 O           42.9600    21.7040     4.9030 O             1 RES     
     859 O           11.2310    19.0010     2.7990 O             1 RES     
     860 Si          30.8700     8.1510     3.5780 Si            1 RES     
     861 Si          10.7240    44.5390     9.5680 Si            1 RES     
     862 O           44.5910     3.2770    10.0920 O             1 RES     
     863 OS          40.6880    12.9890    12.1640 OS            1 RES     
     864 O           23.7620    34.0750     5.5450 O             1 RES     
     865 O           28.5770    19.4320     4.6810 O             1 RES     
     866 Si          48.8450    32.4750     3.0400 Si            1 RES     
     867 O            2.2640    28.7650    11.3580 O             1 RES     
     868 O            8.7090    18.4050    12.0580 O             1 RES     
     869 Si          36.6600    29.8290     3.7120 Si            1 RES     
     870 O           24.6190    21.3980     7.7070 O             1 RES     
     871 Si          39.7760    27.3710    10.4760 Si            1 RES     
     872 O           48.4250    30.9370    11.5870 O             1 RES     
     873 O           36.1050     3.2680     8.2910 O             1 RES     
     874 O           12.4430     1.3040     8.2790 O             1 RES     
     875 Si          33.4360    16.4340    10.8380 Si            1 RES     
     876 Si          30.7530     4.1730     5.0870 Si            1 RES     
     877 O            6.1070    38.0600     5.8620 O             1 RES     
     878 O           38.6680    36.4770     8.9480 O             1 RES     
     879 Si          11.1630     9.6020     5.7720 Si            1 RES     
     880 Si          40.3730    14.4940     8.7190 Si            1 RES     
     881 O           49.6810    32.3530     7.0340 O             1 RES     
     882 OS          14.2170    22.5440    13.1760 OS            1 RES     
     883 O           33.6960    15.5260     7.1440 O             1 RES     
     884 O           34.6540    49.6130     3.8450 O             1 RES     
     885 O            0.6790    30.3410     5.3820 O             1 RES     
     886 Si          19.0850    48.6460    12.2470 Si            1 RES     
     887 Si          22.1510     2.9900    10.5480 Si            1 RES     
     888 O           34.7300    36.8210     2.4400 O             1 RES     
     889 O            2.4910    18.3390     2.9200 O             1 RES     
     890 Si          46.3210    41.5570     3.9180 Si            1 RES     
     891 O           35.5150    12.7300     1.6720 O             1 RES     
     892 O           20.6750    35.7400     9.5880 O             1 RES     
     893 O           44.1660    26.3470     8.2340 O             1 RES     
     894 Si           0.5010    25.4290     7.9210 Si            1 RES     
     895 O           25.2210    39.4880     5.9300 O             1 RES     
     896 OS          46.3090    35.2350    12.6710 OS            1 RES     
     897 O           19.1550     7.3510     3.9290 O             1 RES     
     898 O           24.3180    25.4750     7.2570 O             1 RES     
     899 O           44.5330    42.4470    10.6150 O             1 RES     
     900 O           32.8890    37.2560     8.9580 O             1 RES     
     901 O            1.4300     7.6250    13.2710 O             1 RES     
     902 Si          10.0770    18.5520     6.3800 Si            1 RES     
     903 Si          15.4110    12.2030     8.9330 Si            1 RES     
     904 Si          23.5250    22.0570    12.3530 Si            1 RES     
     905 O           32.6580    29.0700    10.7970 O             1 RES     
     906 O           18.9780    11.5120    10.0640 O             1 RES     
     907 OS          25.6930    19.3670    13.4870 OS            1 RES     
     908 O           42.1530     9.8200     4.4030 O             1 RES     
     909 OS          31.5440    17.1520    13.7880 OS            1 RES     
     910 O           18.3820     7.7760    11.1990 O             1 RES     
     911 Si          19.9120    25.9010    10.4390 Si            1 RES     
     912 Si          21.2670    39.6860     3.0300 Si            1 RES     
     913 O           10.3610    44.5950     2.8460 O             1 RES     
     914 O           19.7400    45.9700     3.4200 O             1 RES     
     915 Si          18.8430    10.6020     5.8770 Si            1 RES     
     916 O           11.3070    24.0840     8.6510 O             1 RES     
     917 OS          21.1670     1.4560    13.9310 OS            1 RES     
     918 O            8.0970    29.2030     4.1690 O             1 RES     
     919 O           33.8360    10.8010     2.9710 O             1 RES     
     920 O            1.1100    20.6060     3.1090 O             1 RES     
     921 Si          46.7980    20.7630     8.3390 Si            1 RES     
     922 O           12.9400    38.4750     8.8170 O             1 RES     
     923 Si          29.6600    44.8580    10.0510 Si            1 RES     
     924 O           11.2120    15.4640     8.3510 O             1 RES     
     925 Si          39.6190     2.0610     8.6460 Si            1 RES     
     926 OS          19.3910    39.6610    12.7410 OS            1 RES     
     927 O           47.5620     7.4470     5.5700 O             1 RES     
     928 Si          39.2700    36.7440    10.3940 Si            1 RES     
     929 O           43.0340    18.0030     8.3440 O             1 RES     
     930 Si          31.7660     6.8110     9.2550 Si            1 RES     
     931 O            2.4310    20.7180     6.6690 O             1 RES     
     932 Si          41.7730    44.6900    12.3280 Si            1 RES     
     933 O           28.3720    33.8490     7.0030 O             1 RES     
     934 OS          12.9090    27.3060    12.5350 OS            1 RES     
     935 Si           4.1990     5.0560    10.8450 Si            1 RES     
     936 O           39.9540     5.4880     5.1340 O             1 RES     
     937 Si           2.1290    14.5270     4.0690 Si            1 RES     
     938 Si          23.8080     8.7590     7.0580 Si            1 RES     
     939 O           15.0930     0.7780     4.4410 O             1 RES     
     940 O           34.8950     4.1750     6.5650 O             1 RES     
     941 OS          34.3920    29.4680    12.5620 OS            1 RES     
     942 O            3.3300    22.7720     8.3380 O             1 RES     
     943 O           18.1330     9.5050     2.4330 O             1 RES     
     944 O           12.2920    44.5360     9.1110 O             1 RES     
     945 O            6.9350    20.8710     7.3810 O             1 RES     
     946 Si           8.2440    37.4110     8.3920 Si            1 RES     
     947 OS          25.8330    15.4440    13.8280 OS            1 RES     
     948 Si          13.5490    34.3190    11.9030 Si            1 RES     
     949 Si          19.7110     7.5830    10.4450 Si            1 RES     
     950 Si          28.6080    15.3720     4.9640 Si            1 RES     
     951 O           39.9930     4.1720     3.0720 O             1 RES     
     952 Si          25.0340    32.0940     8.5620 Si            1 RES     
     953 O           43.6290    33.2150     5.0040 O             1 RES     
     954 Si          11.3430    41.5240     4.6710 Si            1 RES     
     955 Si          27.0130    13.1390     8.3330 Si            1 RES     
     956 Si          48.9600    13.6160     4.9470 Si            1 RES     
     957 O           26.9220    29.1920     9.9540 O             1 RES     
     958 Si           6.3490    26.5680     6.4490 Si            1 RES     
     959 O           26.2180     3.1580    10.9840 O             1 RES     
     960 O           33.2120    16.3800     9.3320 O             1 RES     
     961 OS           6.4260    34.7250    12.1420 OS            1 RES     
     962 O           19.1830    48.4110     2.8480 O             1 RES     
     963 Si           2.8540    46.5740     8.6460 Si            1 RES     
     964 O           40.5630    35.5950     5.7950 O             1 RES     
     965 O           33.2630    10.6490     7.6910 O             1 RES     
     966 O           44.8170    49.4930     6.4370 O             1 RES     
     967 O           15.8050     0.2400    11.7960 O             1 RES     
     968 Si          29.1690    40.2680     6.9740 Si            1 RES     
     969 O           24.2300    32.0940     9.9360 O             1 RES     
     970 OS          36.0060    14.0500    12.9430 OS            1 RES     
     971 Si           4.1400    31.8930    12.2360 Si            1 RES     
     972 O           13.9600    35.7890    11.8600 O             1 RES     
     973 O           10.1560    17.0980     6.7790 O             1 RES     
     974 O           31.4100    38.4720    11.0010 O             1 RES     
     975 O           16.3110     9.1870    12.1930 O             1 RES     
     976 O           49.7160     6.1130    11.9960 O             1 RES     
     977 Si          46.2190     6.7850     6.0930 Si            1 RES     
     978 OS          49.4500     8.6740    12.1600 OS            1 RES     
     979 O            0.5590    24.8310     9.4250 O             1 RES     
     980 O           31.0190    12.8100     4.2520 O             1 RES     
     981 O           42.5120    13.8110     3.3200 O             1 RES     
     982 O           44.9820    35.0040     3.9540 O             1 RES     
     983 Si          47.8900    40.3320     9.3920 Si            1 RES     
     984 OS          40.7650    19.2600    12.4870 OS            1 RES     
     985 O           49.3310    34.6780     8.0710 O             1 RES     
     986 O            6.5610     9.2230     3.8240 O             1 RES     
     987 O           34.6850    12.5290    11.3780 O             1 RES     
     988 Si          24.1050    39.4900    10.4800 Si            1 RES     
     989 O           33.2570     0.2650     5.6660 O             1 RES     
     990 O           22.7900     9.8900     7.1890 O             1 RES     
     991 O           32.6950    35.6060     6.7950 O             1 RES     
     992 OS           5.9340    28.2390    12.2320 OS            1 RES     
     993 O           29.9530    15.9870     4.5410 O             1 RES     
     994 Si          45.8740    13.8780     8.0790 Si            1 RES     
     995 OS          43.1760    24.2670    13.5710 OS            1 RES     
     996 O           34.1640    17.8210    10.9570 O             1 RES     
     997 Si          49.1160    20.2060    11.9690 Si            1 RES     
     998 O           15.7400    10.8380     8.1330 O             1 RES     
     999 Si           5.7440    46.3750     9.5310 Si            1 RES     
    1000 O           38.2740    24.3050    10.1730 O             1 RES     
    1001 O           43.1520     1.7600     6.8610 O             1 RES     
    1002 O           24.4440    16.8930     9.2070 O             1 RES     
    1003 Si          47.1230    44.1060     8.0430 Si            1 RES     
    1004 Si          32.3110    13.8020     4.0170 Si            1 RES     
    1005 O           27.0840     0.2090     8.7460 O             1 RES     
    1006 Si          42.5260    24.7440    12.2770 Si            1 RES     
    1007 O           48.5480     9.5350     6.5140 O             1 RES     
    1008 O           32.0830     5.2400     9.5810 O             1 RES     
    1009 Si          30.7770     6.9750     6.3810 Si            1 RES     
    1010 O           32.6560    17.3460     3.5770 O             1 RES     
    1011 Si          22.9830    46.9500     5.2330 Si            1 RES     
    1012 Si          10.7820    22.8880     7.5800 Si            1 RES     
    1013 O           37.9150    35.4680     2.4360 O             1 RES     
    1014 Si          28.5620    10.2560     3.2980 Si            1 RES     
    1015 O           39.5970     8.4610     6.8880 O             1 RES     
    1016 OS          28.0860    27.0470    12.8440 OS            1 RES     
    1017 Si          12.4540     0.0520     9.2110 Si            1 RES     
    1018 O           46.1330    18.2330    11.5320 O             1 RES     
    1019 O           25.1730     9.3400     6.4250 O             1 RES     
    1020 O           33.3330    44.0330    10.0310 O             1 RES     
    1021 O           41.8390    24.0760     5.2260 O             1 RES     
    1022 Si          37.3600    17.2670     7.9960 Si            1 RES     
    1023 Si          28.2610    28.7300     5.8670 Si            1 RES     
    1024 Si          30.2820     8.1480    12.0040 Si            1 RES     
    1025 O            3.8730     2.3210     7.7110 O             1 RES     
    1026 OS           9.8770    49.4910    12.5530 OS            1 RES     
    1027 O           14.0220    10.2330    11.5570 O             1 RES     
    1028 Si          22.5800    13.5060     8.3100 Si            1 RES     
    1029 O           49.1180     1.8730     9.3660 O             1 RES     
    1030 Si          48.9490    14.0960     8.0240 Si            1 RES     
    1031 Si          46.8790     3.8960     6.8860 Si            1 RES     
    1032 O           35.4650    32.8620     6.0240 O             1 RES     
    1033 O           27.1510    37.9040     8.7450 O             1 RES     
    1034 Si          17.7620    23.1290     3.9820 Si            1 RES     
    1035 O           26.4320    17.0710     7.9550 O             1 RES     
    1036 OS          23.7870    28.9780    13.9750 OS            1 RES     
    1037 O           14.9030    22.0870     6.1110 O             1 RES     
    1038 O           16.5420    43.3890     8.1150 O             1 RES     
    1039 O            0.9190    22.9880     4.2150 O             1 RES     
    1040 Si          17.7200    13.2740     4.9340 Si            1 RES     
    1041 O            5.1420    42.4580     8.9610 O             1 RES     
    1042 O           34.5830     8.8080     5.8920 O             1 RES     
    1043 O           27.9120    44.4110     6.9660 O             1 RES     
    1044 Si          48.7060    12.1020    12.1750 Si            1 RES     
    1045 O           18.3710    13.4360    11.6530 O             1 RES     
    1046 O           40.0080     4.3710    11.6840 O             1 RES     
    1047 O           18.3840    14.6960     5.1130 O             1 RES     
    1048 O            5.2630    46.3220    11.0400 O             1 RES     
    1049 O           47.8390    21.1070     5.3680 O             1 RES     
    1050 Si          26.3970    15.0080    12.4620 Si            1 RES     
    1051 O           42.3170    26.3140     6.2530 O             1 RES     
    1052 O           25.3350     7.2390    10.7060 O             1 RES     
    1053 Si          31.4810    26.0880     8.1040 Si            1 RES     
    1054 O           49.2420    36.2610     5.9950 O             1 RES     
    1055 O           46.9280     2.4810     9.7930 O             1 RES     
    1056 O           36.5390    30.8970     7.4160 O             1 RES     
    1057 O           32.5680    21.7720     6.0700 O             1 RES     
    1058 O            1.2920    19.6120     8.2810 O             1 RES     
    1059 O           24.1240    12.2340     5.0580 O             1 RES     
    1060 Si           3.8400     3.8590     8.0030 Si            1 RES     
    1061 Si           2.7330     7.5870     9.8720 Si            1 RES     
    1062 O            7.5060    25.9090    11.4880 O             1 RES     
    1063 Si           8.4160    24.7610     7.8710 Si            1 RES     
    1064 OS           1.2370    16.9980    13.2580 OS            1 RES     
    1065 O           14.4070     2.7210     7.7180 O             1 RES     
    1066 O           25.0570    40.4720    11.2770 O             1 RES     
    1067 O           21.3450    31.9200     4.4470 O             1 RES     
    1068 Si          11.9350    39.3810     9.6200 Si            1 RES     
    1069 Si          12.9040     2.3990     7.3500 Si            1 RES     
    1070 O           34.6530     4.1580     4.0910 O             1 RES     
    1071 Si          20.6580    32.5660     5.7020 Si            1 RES     
    1072 O            9.9550     6.7670    10.5320 O             1 RES     
    1073 O            6.3270    49.7210     5.6860 O             1 RES     
    1074 O           28.0230    23.1170     4.3880 O             1 RES     
    1075 Si          13.5940     1.3770     4.4050 Si            1 RES     
    1076 O           26.0460    12.7870     7.0520 O             1 RES     
    1077 Si           8.1330    39.0510    11.0320 Si            1 RES     
    1078 O           29.3400     0.0210     9.9030 O             1 RES     
    1079 OS          20.6290    19.5290    12.8240 OS            1 RES     
    1080 O           46.3110    16.6070     5.0460 O             1 RES     
    1081 O           35.1690     9.0720     8.2150 O             1 RES     
    1082 O           22.7640    36.2150    10.5800 O             1 RES     
    1083 O           21.7240     4.2780    11.3080 O             1 RES     
    1084 O           30.1630    19.2540     8.8420 O             1 RES     
    1085 Si          15.8320    17.6140    10.7090 Si            1 RES     
    1086 O           49.4760    39.6740     5.8810 O             1 RES     
    1087 O           17.5210    13.0590     3.3260 O             1 RES     
    1088 Si          13.2090    43.8680     5.5150 Si            1 RES     
    1089 O           36.7560    28.3420     3.2740 O             1 RES     
    1090 O            0.1930     8.2110     7.5440 O             1 RES     
    1091 O           40.9160     8.9220     9.0310 O             1 RES     
    1092 Si          35.5870    48.5000    12.5270 Si            1 RES     
    1093 OS          32.5230    30.9610    12.8910 OS            1 RES     
    1094 Si          26.3850    30.8540     4.7940 Si            1 RES     
    1095 Si          21.2500     0.8260    12.5180 Si            1 RES     
    1096 O           27.9370    28.7950     7.4510 O             1 RES     
    1097 Si          32.3110     1.7010    11.9900 Si            1 RES     
    1098 O           20.8080     3.1280     6.0350 O             1 RES     
    1099 O           40.3960    19.4270    10.0400 O             1 RES     
    1100 O            8.1620    44.6540     3.9810 O             1 RES     
    1101 O           31.2400    47.1840     7.4300 O             1 RES     
    1102 O           23.7120     2.8520    10.9510 O             1 RES     
    1103 Si          21.9530    49.8670     5.1650 Si            1 RES     
    1104 O           28.4080    32.9060    12.4150 O             1 RES     
    1105 Si           2.6000    39.6720    10.1250 Si            1 RES     
    1106 Si          14.2540    20.1500     9.5970 Si            1 RES     
    1107 Si          33.7110    11.3420    11.5940 Si            1 RES     
    1108 O            2.3200    36.0940    10.2110 O             1 RES     
    1109 Si          33.6340    36.2480     7.9020 Si            1 RES     
    1110 OS          10.7800     5.6640    12.5930 OS            1 RES     
    1111 O           24.1490    43.2310    10.0890 O             1 RES     
    1112 O           43.1390    28.5830    10.8060 O             1 RES     
    1113 O           47.2410     5.9820    11.9870 O             1 RES     
    1114 Si          13.1380    10.7930    10.3950 Si            1 RES     
    1115 O           17.1380    33.0670    11.5390 O             1 RES     
    1116 Si          26.4910    29.8150    11.3490 Si            1 RES     
    1117 O           18.5480    12.0030     5.4170 O             1 RES     
    1118 O           31.5450    35.9710     4.5650 O             1 RES     
    1119 Si           0.7740    47.0520     3.7350 Si            1 RES     
    1120 O            2.5520     7.5940     3.3250 O             1 RES     
    1121 Si          45.9920    32.1560     8.3110 Si            1 RES     
    1122 O           44.3380    46.0900     7.4270 O             1 RES     
    1123 Si          43.0130    29.5670     5.5960 Si            1 RES     
    1124 Si          43.2570     4.0900    10.1390 Si            1 RES     
    1125 Si          27.4220     3.6870    10.1520 Si            1 RES     
    1126 O           20.0630    39.6790     1.9350 O             1 RES     
    1127 O           17.8060     0.4220     4.2120 O             1 RES     
    1128 O           38.2740     6.0910    11.2360 O             1 RES     
    1129 O            4.5930    39.7580     5.1360 O             1 RES     
    1130 Si          28.9100     1.9180     6.1170 Si            1 RES     
    1131 O           11.7560     6.7500     4.0410 O             1 RES     
    1132 Si          24.7800    37.9610     5.9250 Si            1 RES     
    1133 O            9.0370     8.2650     8.6630 O             1 RES     
    1134 O           37.7560    32.9340     2.4400 O             1 RES     
    1135 OS           4.5950    49.1400    14.5170 OS            1 RES     
    1136 O           24.6140    21.0140    11.8510 O             1 RES     
    1137 O           22.9150    25.2500     2.6540 O             1 RES     
    1138 O           10.7970    47.4620     6.5500 O             1 RES     
    1139 Si          21.8370    41.1810     9.1520 Si            1 RES     
    1140 O            9.1480     7.9230     3.5290 O             1 RES     
    1141 Si          40.5370     9.9940    10.0790 Si            1 RES     
    1142 O            5.7350     5.3190    11.2190 O             1 RES     
    1143 O            1.9570    38.9090     4.9630 O             1 RES     
    1144 O           39.2870    40.1540    10.0700 O             1 RES     
    1145 O            3.8470    17.0590     4.3490 O             1 RES     
    1146 O           17.8950    41.6230     7.1700 O             1 RES     
    1147 Si          41.1600    32.1080     9.2800 Si            1 RES     
    1148 Si           7.5300    18.7090     4.5500 Si            1 RES     
    1149 O           39.2430    10.7900     9.7430 O             1 RES     
    1150 O           38.8950    14.7690     9.3090 O             1 RES     
    1151 Si          32.5590    37.3940    10.4550 Si            1 RES     
    1152 O           36.1270    46.5280     6.8370 O             1 RES     
    1153 O           35.6710     7.5290     3.6010 O             1 RES     
    1154 Si          41.2410     5.5420     6.0670 Si            1 RES     
    1155 O           44.3530    47.2570     5.2990 O             1 RES     
    1156 O           21.0960    11.5510    11.3260 O             1 RES     
    1157 O           36.3140    47.7270     2.8030 O             1 RES     
    1158 Si           3.2690     7.8770     4.6890 Si            1 RES     
    1159 Si          44.3260    32.8360    10.9620 Si            1 RES     
    1160 O            5.9080    44.4830     4.7470 O             1 RES     
    1161 O           37.8670    48.5510     6.9750 O             1 RES     
    1162 Si          47.7890    29.7170     7.8140 Si            1 RES     
    1163 O           10.5360    45.8010    10.8160 O             1 RES     
    1164 O           30.0420     6.9110     3.1560 O             1 RES     
    1165 O           29.3280    25.3040     5.3200 O             1 RES     
    1166 O            2.6590     4.1220     4.7300 O             1 RES     
    1167 O            3.6920    39.0040     2.9030 O             1 RES     
    1168 O           46.0630     7.6860    10.0550 O             1 RES     
    1169 Si          42.8980    39.7550    11.7930 Si            1 RES     
    1170 Si          44.6300    32.1160     5.5620 Si            1 RES     
    1171 Si           6.6730    28.6420     4.1830 Si            1 RES     
    1172 O           35.2920    12.1580     4.2350 O             1 RES     
    1173 O           23.1660    15.8090     4.5290 O             1 RES     
    1174 OS          36.2370    33.6100    13.1820 OS            1 RES     
    1175 O            7.7920    19.5000     3.2450 O             1 RES     
    1176 Si          39.0220    39.1650     3.7950 Si            1 RES     
    1177 O           38.6900    39.3440     5.2950 O             1 RES     
    1178 Si          20.5840    46.4850     9.0350 Si            1 RES     
    1179 Si          26.1220     6.8770     3.7100 Si            1 RES     
    1180 O           20.6050    27.2480    10.9330 O             1 RES     
    1181 O           42.4750    43.0040     4.0240 O             1 RES     
    1182 O           48.6060    16.6050     3.7510 O             1 RES     
    1183 OS          31.7590    28.7610    13.1040 OS            1 RES     
    1184 O           17.4440    10.2380     6.5740 O             1 RES     
    1185 O           29.8050     9.3610     3.5760 O             1 RES     
    1186 O           24.9300     2.2730     5.9240 O             1 RES     
    1187 O           45.0480    49.2860     3.9300 O             1 RES     
    1188 O           48.9510    41.4400     9.0160 O             1 RES     
    1189 Si          23.2200    44.8880     8.7860 Si            1 RES     
    1190 O           46.5110    30.6330     8.0910 O             1 RES     
    1191 Si           2.9310    20.3950    11.4460 Si            1 RES     
    1192 O           37.0440    36.4570     7.0990 O             1 RES     
    1193 OS          23.2340    45.3400    13.3730 OS            1 RES     
    1194 Si           4.5790    17.8720    12.0130 Si            1 RES     
    1195 O           31.9420    31.6430     9.0490 O             1 RES     
    1196 Si          20.8980    21.6300     7.9010 Si            1 RES     
    1197 O           20.6810    24.5750    10.5290 O             1 RES     
    1198 Si          49.8680    39.7510    11.6200 Si            1 RES     
    1199 O           46.8890    41.2540    10.2250 O             1 RES     
    1200 Si          41.9310    29.5470    10.6970 Si            1 RES     
    1201 O            0.9740     5.9620     6.5700 O             1 RES     
    1202 O           15.6560    34.3010     8.0550 O             1 RES     
    1203 O           11.1760    49.7570    10.1540 O             1 RES     
    1204 O           16.9850    20.3870     6.9930 O             1 RES     
    1205 O           21.1540    22.3680     9.2110 O             1 RES     
    1206 Si           7.0370     4.9610    12.2210 Si            1 RES     
    1207 O            9.8820    35.6720     2.0770 O             1 RES     
    1208 O            2.4470     0.3440    10.6000 O             1 RES     
    1209 Si          34.4530    45.6960    12.7250 Si            1 RES     
    1210 O           35.4760     0.9680    10.6270 O             1 RES     
    1211 O           38.3100    16.9160     6.8450 O             1 RES     
    1212 Si          49.5990    10.9130     3.3680 Si            1 RES     
    1213 O           30.3820    40.4390    11.8390 O             1 RES     
    1214 O            2.3780    48.0490     9.1800 O             1 RES     
    1215 O           11.9200    35.5030     8.8340 O             1 RES     
    1216 Si          11.6610    42.2820    11.3350 Si            1 RES     
    1217 O           16.2840     2.2140     9.1100 O             1 RES     
    1218 O           28.8800    23.1380     6.8910 O             1 RES     
    1219 Si          15.1530     8.2330     3.0780 Si            1 RES     
    1220 O           37.6080    16.6840     3.1480 O             1 RES     
    1221 O           16.5280    23.4710     4.8550 O             1 RES     
    1222 O            2.0400    19.3430    10.6480 O             1 RES     
    1223 O           26.6770    32.2300     8.4070 O             1 RES     
    1224 O           34.8490    45.1810     8.5100 O             1 RES     
    1225 O           44.2890    39.3050    11.3820 O             1 RES     
    1226 O           33.8490    20.4930    11.2560 O             1 RES     
    1227 O           22.5550    39.5800     2.1820 O             1 RES     
    1228 O           42.6690    41.1440    11.1220 O             1 RES     
    1229 O            1.5370    26.3480    11.4820 O             1 RES     
    1230 O           31.1460    46.0030     2.2060 O             1 RES     
    1231 O            6.7110    37.0250     8.4600 O             1 RES     
    1232 O           40.4520    26.0420     4.4160 O             1 RES     
    1233 Si           1.4310    29.3570     4.3530 Si            1 RES     
    1234 Si          29.4410    44.1440     6.3630 Si            1 RES     
    1235 Si          34.5620    37.2000    12.6940 Si            1 RES     
    1236 O           15.4150    17.9690     3.7480 O             1 RES     
    1237 O           48.6890    29.9460     9.1440 O             1 RES     
    1238 Si          19.7040    35.1190     4.3010 Si            1 RES     
    1239 Si           9.2350    40.2780     8.5050 Si            1 RES     
    1240 O           10.1700    22.6780     3.4770 O             1 RES     
    1241 O           28.0260    48.4980     3.9550 O             1 RES     
    1242 Si          10.2590     7.0960     4.3300 Si            1 RES     
    1243 Si          10.7680     0.3680     4.1590 Si            1 RES     
    1244 O            7.4330    33.4430    10.3300 O             1 RES     
    1245 O           37.5930    12.8270     9.0240 O             1 RES     
    1246 O           39.2760    49.7930     5.2960 O             1 RES     
    1247 Si          40.4220    22.1860     8.0240 Si            1 RES     
    1248 O           41.5440    30.2860     5.8490 O             1 RES     
    1249 Si          15.1180    23.4980     5.5180 Si            1 RES     
    1250 O           37.2250    44.6220     8.1630 O             1 RES     
    1251 Si          37.4620    29.9450     6.6480 Si            1 RES     
    1252 O           28.2940     2.3970     9.6980 O             1 RES     
    1253 Si          49.9060    16.3460     2.8790 Si            1 RES     
    1254 O            2.1370    21.5170    12.1680 O             1 RES     
    1255 O           43.6060    34.1830    10.4770 O             1 RES     
    1256 Si          40.0440    22.8680     2.7750 Si            1 RES     
    1257 Si          30.3540    49.4740    11.0060 Si            1 RES     
    1258 O           10.4660    28.0500     3.3230 O             1 RES     
    1259 O           43.5030    29.4090     4.0760 O             1 RES     
    1260 O           12.3350    34.3870    10.9070 O             1 RES     
    1261 Si          30.2830    35.4870    10.0540 Si            1 RES     
    1262 O            1.5180     7.7760    10.8100 O             1 RES     
    1263 OS          13.9350    48.6380    12.4890 OS            1 RES     
    1264 O           11.8470    15.4370     5.8870 O             1 RES     
    1265 Si          36.3330    41.9210    10.7280 Si            1 RES     
    1266 Si          35.4250    49.3560     9.7630 Si            1 RES     
    1267 O           20.1260    10.3950     6.6900 O             1 RES     
    1268 O           42.1540     3.4420    10.9540 O             1 RES     
    1269 OS          48.7590     4.2680    13.4230 OS            1 RES     
    1270 O           34.3070    45.7400    11.1810 O             1 RES     
    1271 Si          28.9580    19.7090    12.6810 Si            1 RES     
    1272 O           13.5450     2.5430     3.3690 O             1 RES     
    1273 Si          10.8420    26.5980     2.8430 Si            1 RES     
    1274 Si          20.2770    23.7320     5.6520 Si            1 RES     
    1275 Si          14.4350    38.4700     8.2500 Si            1 RES     
    1276 O           14.3810    38.4590    11.4540 O             1 RES     
    1277 Si          40.9010     7.9910    12.3730 Si            1 RES     
    1278 Si           4.0140    12.4090     2.8490 Si            1 RES     
    1279 O           46.4900     5.3760     6.6270 O             1 RES     
    1280 O           43.7220     5.6280     2.8890 O             1 RES     
    1281 O            9.7740     8.0690    12.8280 O             1 RES     
    1282 O           11.2780    22.8880     6.1010 O             1 RES     
    1283 Si          34.9060    19.1140     7.6960 Si            1 RES     
    1284 O           14.3030     7.0030     3.5270 O             1 RES     
    1285 O            7.6360     4.7540     3.4860 O             1 RES     
    1286 O            1.1770    36.5940     7.9670 O             1 RES     
    1287 Si          41.8900    36.6090     5.6030 Si            1 RES     
    1288 Si           8.3270    24.6850    10.8860 Si            1 RES     
    1289 Si          48.5580    37.0190     4.7550 Si            1 RES     
    1290 O           18.0280    24.1480     2.7820 O             1 RES     
    1291 O           38.2120    40.3700     3.1680 O             1 RES     
    1292 O           13.2290    18.9340     4.1960 O             1 RES     
    1293 O            1.5240    42.1600     5.3490 O             1 RES     
    1294 O           34.2080    41.4020     2.9950 O             1 RES     
    1295 O            9.9340    30.2440     7.3410 O             1 RES     
    1296 O            2.0630    15.5610     2.9380 O             1 RES     
    1297 Si          27.0240    28.3330     8.6310 Si            1 RES     
    1298 OS          38.5380    40.3870    12.5310 OS            1 RES     
    1299 O           35.8430     5.7330    11.5410 O             1 RES     
    1300 O           27.5350     2.5990     5.9240 O             1 RES     
    1301 Si          43.6470     6.3850     4.3100 Si            1 RES     
    1302 O           42.4490    45.0810     5.6010 O             1 RES     
    1303 O           38.6840    34.5900     7.1850 O             1 RES     
    1304 Si          43.7680    26.7680     6.7440 Si            1 RES     
    1305 O           47.2250    26.1170     2.2900 O             1 RES     
    1306 O            4.9090    17.5310    10.4690 O             1 RES     
    1307 O           28.7750     5.2600     1.7050 O             1 RES     
    1308 Si          31.4390    21.9590     5.0050 Si            1 RES     
    1309 Si          21.4930    10.7350     7.5580 Si            1 RES     
    1310 O           13.9710     6.4620     5.8890 O             1 RES     
    1311 O           33.0330    13.1450     8.0570 O             1 RES     
    1312 Si          34.9240    33.4730     4.7240 Si            1 RES     
    1313 OS          26.3210    32.7020    13.5690 OS            1 RES     
    1314 Si          31.5440    41.4570    12.4750 Si            1 RES     
    1315 O           29.3740    43.0310     2.4190 O             1 RES     
    1316 O           25.4890    13.7300    12.0520 O             1 RES     
    1317 Si          41.1940    25.4280     5.6740 Si            1 RES     
    1318 Si          25.0190    33.6200     4.5810 Si            1 RES     
    1319 O           25.8520    37.3180     4.9610 O             1 RES     
    1320 O           33.7020     3.5210     8.8710 O             1 RES     
    1321 Si          49.5320    36.2110     7.5480 Si            1 RES     
    1322 O            7.9020    12.8950     5.8120 O             1 RES     
    1323 Si          32.6620    21.5750    11.0900 Si            1 RES     
    1324 Si          41.8410    37.7970     9.8630 Si            1 RES     
    1325 O           24.8970    38.6820     9.4090 O             1 RES     
    1326 O           19.4320    30.9940     8.6450 O             1 RES     
    1327 O           23.0340     6.4600    10.7360 O             1 RES     
    1328 Si           6.1230    21.0220     6.0700 Si            1 RES     
    1329 O           26.2580     7.8970     4.8800 O             1 RES     
    1330 O           24.7020    27.8820     4.0000 O             1 RES     
    1331 O            6.7870    43.4910    11.0880 O             1 RES     
    1332 O            4.7200    26.2960     6.7230 O             1 RES     
    1333 O           37.7030    28.5370     7.3720 O             1 RES     
    1334 O           34.9560    33.9470    11.0150 O             1 RES     
    1335 O           14.4000    21.2030    10.7780 O             1 RES     
    1336 OS          17.2170    24.9120    13.6390 OS            1 RES     
    1337 O            4.4340    46.6510     3.6400 O             1 RES     
    1338 O           30.7400    41.4030     3.7310 O             1 RES     
    1339 O            4.3840    13.3880    11.0640 O             1 RES     
    1340 OS          22.1030    11.6210    13.7130 OS            1 RES     
    1341 Si          31.4340    47.1230     9.0250 Si            1 RES     
    1342 OS          36.8030    42.6740    12.0850 OS            1 RES     
    1343 Si          22.1270    35.1590     9.6950 Si            1 RES     
    1344 Si           4.3300    41.3140     8.1820 Si            1 RES     
    1345 O           40.7490    28.5730    10.2950 O             1 RES     
    1346 O           32.6930    40.5850     4.9870 O             1 RES     
    1347 O           31.9860     3.9110     4.1460 O             1 RES     
    1348 O           45.5510     9.8530     8.1410 O             1 RES     
    1349 Si          30.2600    26.5190     5.2240 Si            1 RES     
    1350 Si          30.8330    16.8930    12.4020 Si            1 RES     
    1351 O           33.2690     3.5440     1.8200 O             1 RES     
    1352 Si          33.1600    28.3150     9.5480 Si            1 RES     
    1353 OS          44.0770    47.9320    12.2840 OS            1 RES     
    1354 O           47.5480    38.0060     5.6180 O             1 RES     
    1355 Si          37.6450    27.2860     8.3550 Si            1 RES     
    1356 OS          27.5640    24.5850    13.4620 OS            1 RES     
    1357 O            7.1940    24.1080     3.5390 O             1 RES     
    1358 Si          16.4750     0.4530     5.0370 Si            1 RES     
    1359 OS          19.0150    33.9640    12.9490 OS            1 RES     
    1360 Si          13.7360    46.8480     4.7960 Si            1 RES     
    1361 O           45.7160     3.1720     7.7260 O             1 RES     
    1362 O           47.2460    43.8840     6.4930 O             1 RES     
    1363 O           33.8920     7.0090    12.1530 O             1 RES     
    1364 Si          39.0750     5.0900     3.8950 Si            1 RES     
    1365 O            7.5480    21.7370     2.2120 O             1 RES     
    1366 O           38.7150    11.9880     2.8450 O             1 RES     
    1367 O           17.3960    45.5620     7.7220 O             1 RES     
    1368 Si          25.4570     0.0150     8.9280 Si            1 RES     
    1369 O           26.8410    31.3830    11.3970 O             1 RES     
    1370 Si           6.6870    28.7520     8.6050 Si            1 RES     
    1371 O           22.9350     8.4130     3.4420 O             1 RES     
    1372 O           39.6580    23.4910     8.2180 O             1 RES     
    1373 O           40.5220    13.4140     7.5850 O             1 RES     
    1374 O           12.5910    40.7200     5.2870 O             1 RES     
    1375 OS          29.9960    21.1650    13.4540 OS            1 RES     
    1376 Si          41.0860    12.8460     6.2010 Si            1 RES     
    1377 Si          16.5360    42.3980     6.8450 Si            1 RES     
    1378 O            5.2850    29.5070     8.5800 O             1 RES     
    1379 Si          45.8050    26.2980     2.8180 Si            1 RES     
    1380 O           13.0470    46.5060     7.9250 O             1 RES     
    1381 O            0.7180    49.8240     8.9760 O             1 RES     
    1382 Si          11.1980    35.2150    10.2120 Si            1 RES     
    1383 O           16.1250    27.2630     7.1250 O             1 RES     
    1384 O           42.0090     8.9310     6.7160 O             1 RES     
    1385 O           29.4600     7.4260     7.0500 O             1 RES     
    1386 Si          24.4940    16.1220     5.1530 Si            1 RES     
    1387 O           14.2950    24.3120     4.4240 O             1 RES     
    1388 O           29.1570    32.0700     6.3030 O             1 RES     
    1389 O           16.2070    42.0650     2.8460 O             1 RES     
    1390 Si           9.1930     2.1070     6.1930 Si            1 RES     
    1391 O           22.3780    10.9030     3.1270 O             1 RES     
    1392 O           29.5450    27.8690     5.5900 O             1 RES     
    1393 Si           9.7130    35.8030     6.0890 Si            1 RES     
    1394 O           16.2530    39.6080     2.5560 O             1 RES     
    1395 O           36.1380    34.2730     4.0100 O             1 RES     
    1396 O           38.8820    42.7470     2.5550 O             1 RES     
    1397 O           41.4980     4.0980     6.5750 O             1 RES     
    1398 O           44.7810    41.7280     3.7870 O             1 RES     
    1399 Si          21.5530    37.3940     5.0980 Si            1 RES     
    1400 O           15.2540    46.7190     5.0130 O             1 RES     
    1401 Si          48.3050     8.8110     5.0710 Si            1 RES     
    1402 Si          19.3380    36.4260     9.9850 Si            1 RES     
    1403 O           47.7060     8.7760     8.5610 O             1 RES     
    1404 O           16.0610     6.3310     7.6540 O             1 RES     
    1405 O           48.3560    10.4680     2.3570 O             1 RES     
    1406 Si           7.5970    15.8860     3.3550 Si            1 RES     
    1407 Si          33.3320    42.4600    10.1280 Si            1 RES     
    1408 Si          46.0100    36.0040     3.3990 Si            1 RES     
    1409 O           46.9380    40.5590     4.9240 O             1 RES     
    1410 Si          14.4050    18.2450     4.9420 Si            1 RES     
    1411 O           46.1040    11.4080     5.6420 O             1 RES     
    1412 O           27.3830     8.8200     6.7370 O             1 RES     
    1413 O           31.8700    15.0560     3.2500 O             1 RES     
    1414 Si          15.9070    10.0890     6.7220 Si            1 RES     
    1415 O           10.8390    15.5770    10.8400 O             1 RES     
    1416 Si           3.8790    23.8550     9.3030 Si            1 RES     
    1417 O           10.9570    21.5610     8.4690 O             1 RES     
    1418 Si           7.0870    27.4220    11.3940 Si            1 RES     
    1419 O           42.1170    20.9600    11.0440 O             1 RES     
    1420 O           41.2090     6.6220     7.2350 O             1 RES     
    1421 Si           3.2300    16.7320     5.8630 Si            1 RES     
    1422 O           25.0490    41.8660     6.4780 O             1 RES     
    1423 Si           1.2730    44.7730    10.5840 Si            1 RES     
    1424 O            2.6120    46.4420     7.0790 O             1 RES     
    1425 O           13.6390    49.8840    10.2120 O             1 RES     
    1426 O           30.6700    34.1810     9.2810 O             1 RES     
    1427 Si          41.1270    42.6480     8.1450 Si            1 RES     
    1428 O           40.0150     6.7220    12.7820 O             1 RES     
    1429 OS          46.5220    14.8410    13.6800 OS            1 RES     
    1430 O           19.5030    37.4470    11.1780 O             1 RES     
    1431 O           40.1420    18.5980     7.4890 O             1 RES     
    1432 O            6.4810    45.2430    12.8770 O             1 RES     
    1433 O            3.6000    44.9390     4.7370 O             1 RES     
    1434 O           40.1310    32.9500    10.1810 O             1 RES     
    1435 Si          26.6890    16.7210     3.0580 Si            1 RES     
    1436 O           23.2980    16.4810    11.5780 O             1 RES     
    1437 O            7.4210    33.3580     4.5400 O             1 RES     
    1438 O           47.3600    32.4420     2.6270 O             1 RES     
    1439 O           38.3920    45.2230     3.4960 O             1 RES     
    1440 O            2.3880    18.0540     6.4230 O             1 RES     
    1441 O           25.3700    36.4550     2.4690 O             1 RES     
    1442 O           33.4470    13.1420     3.1830 O             1 RES     
    1443 OS          24.0410    23.1650    13.5520 OS            1 RES     
    1444 O           36.7380    34.8560     9.1230 O             1 RES     
    1445 O           43.6660    35.3340     8.4330 O             1 RES     
    1446 O           39.8860     2.2040    10.2160 O             1 RES     
    1447 OS          49.6020    12.7850    13.2680 OS            1 RES     
    1448 O           33.9400    24.2910     2.7330 O             1 RES     
    1449 O           11.1720    18.9820     5.3790 O             1 RES     
    1450 O           14.0480     9.3350     3.0620 O             1 RES     
    1451 O           34.2480    35.0790     8.7640 O             1 RES     
    1452 O           14.3800    26.3200    10.8220 O             1 RES     
    1453 Si           5.3480    49.4170    12.7330 Si            1 RES     
    1454 O           41.5300    11.3990     6.3670 O             1 RES     
    1455 O           46.0850    35.4200     1.9540 O             1 RES     
    1456 Si          11.4050    22.6560     4.4670 Si            1 RES     
    1457 Si           5.4440    46.3220    12.6150 Si            1 RES     
    1458 O           47.9650     3.8760     8.0230 O             1 RES     
    1459 O           22.6100    24.2770     9.1200 O             1 RES     
    1460 O            8.7410     3.2920     5.2770 O             1 RES     
    1461 O           43.1120    13.3500    10.8740 O             1 RES     
    1462 O           40.3440    48.4660     7.4730 O             1 RES     
    1463 O            3.4810     4.3130    11.9250 O             1 RES     
    1464 OS          15.4450    37.0720    13.3770 OS            1 RES     
    1465 O           30.5520    32.6320    11.0970 O             1 RES     
    1466 O           14.9040    13.0700     7.7000 O             1 RES     
    1467 Si          43.4640    34.5120     4.1050 Si            1 RES     
    1468 O           37.2750    41.3190     6.3480 O             1 RES     
    1469 O           16.5790     8.1120     3.7590 O             1 RES     
    1470 O           44.9030    17.5790     9.8250 O             1 RES     
    1471 O           42.4170    23.6620    11.1840 O             1 RES     
    1472 Si          11.8210    19.6120     4.0960 Si            1 RES     
    1473 O            4.2290     4.2180     9.5200 O             1 RES     
    1474 O           11.9240     3.5670     7.9060 O             1 RES     
    1475 Si          23.2640    28.3340     4.5650 Si            1 RES     
    1476 Si          10.6550    15.6260     6.9070 Si            1 RES     
    1477 Si          16.6240    47.4700     4.8540 Si            1 RES     
    1478 O           42.4230    43.5150    11.6360 O             1 RES     
    1479 O           44.6300    13.0840     4.7050 O             1 RES     
    1480 O           24.8870    23.7760     8.7800 O             1 RES     
    1481 Si          44.1340    14.4970    10.5390 Si            1 RES     
    1482 O            1.7890    11.3740     9.7400 O             1 RES     
    1483 Si          36.3550    48.1240     7.1680 Si            1 RES     
    1484 O           10.2310    49.0210     4.5630 O             1 RES     
    1485 O           28.3610    24.1750     9.0730 O             1 RES     
    1486 O           20.6590    43.6390     4.2780 O             1 RES     
    1487 Si          19.3750    41.1540     7.3020 Si            1 RES     
    1488 O           30.9560    11.5940     8.6360 O             1 RES     
    1489 OS          18.8340     9.1030    13.2000 OS            1 RES     
    1490 OS          18.5960    17.9340    13.0090 OS            1 RES     
    1491 O           46.4730     1.5150     3.5410 O             1 RES     
    1492 O           12.2390    25.8070     3.0760 O             1 RES     
    1493 O           34.3740    21.7230     2.4900 O             1 RES     
    1494 O            7.1170    49.6020     8.2970 O             1 RES     
    1495 O            7.2630    40.2660     5.4760 O             1 RES     
    1496 Si           5.9150    39.6130     6.0160 Si            1 RES     
    1497 O            3.6420    48.2090     1.7190 O             1 RES     
    1498 Si           9.3260    30.2780     8.7720 Si            1 RES     
    1499 O           21.8550    12.2470     7.6560 O             1 RES     
    1500 Si          32.0220    45.5090     3.4310 Si            1 RES     
    1501 Si          26.3280    36.2830     3.8650 Si            1 RES     
    1502 Si          29.2960    49.2110     4.6370 Si            1 RES     
    1503 Si           9.8470    49.8200    11.0250 Si            1 RES     
    1504 O           23.2350    37.5940     5.5630 O             1 RES     
    1505 O            4.4610     4.4630     6.6550 O             1 RES     
    1506 O           37.6840     4.5540     4.2990 O             1 RES     
    1507 O            8.1540    43.7040     6.2390 O             1 RES     
    1508 O           16.5850     3.8740     7.1990 O             1 RES     
    1509 Si          43.4070    14.0150     4.5790 Si            1 RES     
    1510 O           29.2980    38.8270     7.6790 O             1 RES     
    1511 O           29.3870    21.7350     9.2020 O             1 RES     
    1512 Si          19.1950    49.8120     3.6240 Si            1 RES     
    1513 O           38.6720    38.0910    11.0390 O             1 RES     
    1514 Si          37.7770    35.5230     8.0530 Si            1 RES     
    1515 O            0.8420    23.7000    11.6950 O             1 RES     
    1516 Si          45.3090    46.5390     8.6930 Si            1 RES     
    1517 O           40.1670    32.8790     5.9980 O             1 RES     
    1518 O           49.4920    12.2080     4.3130 O             1 RES     
    1519 Si          43.2470    18.1450     6.8110 Si            1 RES     
    1520 O            1.2610    45.9670     4.7330 O             1 RES     
    1521 O           20.5560     6.5140    11.2540 O             1 RES     
    1522 Si          46.4700    21.9070     5.5860 Si            1 RES     
    1523 O           33.7270     4.7470    11.2180 O             1 RES     
    1524 O           48.7680    39.6940    10.5490 O             1 RES     
    1525 Si           3.4020     1.0840     6.7640 Si            1 RES     
    1526 O           21.3330     1.8710    11.3530 O             1 RES     
    1527 O           35.5060    11.1090     6.4490 O             1 RES     
    1528 O           26.7580     4.1720     8.6430 O             1 RES     
    1529 OS          44.5140    28.1680    12.7980 OS            1 RES     
    1530 O           37.1250     4.6340     6.7400 O             1 RES     
    1531 Si          42.0090     8.7670     3.2600 Si            1 RES     
    1532 Si          46.1000    12.5440     4.5270 Si            1 RES     
    1533 OS          49.5030    40.8540    12.6370 OS            1 RES     
    1534 O           11.7300    11.3630    10.8470 O             1 RES     
    1535 Si          10.5060     3.9990     8.3070 Si            1 RES     
    1536 O           26.4340    42.8610    11.3620 O             1 RES     
    1537 OS          10.2690    20.2770    12.7150 OS            1 RES     
    1538 O            4.0880     6.5780     5.0410 O             1 RES     
    1539 Si           4.7960    45.1350     3.8250 Si            1 RES     
    1540 Si          17.2500    36.7620     5.3500 Si            1 RES     
    1541 O           22.6580    35.0170     8.1920 O             1 RES     
    1542 O            4.7760    11.3850     3.7570 O             1 RES     
    1543 Si           2.1730    30.1660    10.6390 Si            1 RES     
    1544 Si           1.5830    19.4170     6.7290 Si            1 RES     
    1545 Si           4.1910    30.4610     4.9740 Si            1 RES     
    1546 O           18.7420    19.2920     3.6040 O             1 RES     
    1547 O           29.6860    44.8840    11.6080 O             1 RES     
    1548 Si          21.1900    42.2330     4.8640 Si            1 RES     
    1549 O           30.7800    20.5740     4.9990 O             1 RES     
    1550 O           19.1700    19.3410     6.1340 O             1 RES     
    1551 Si          21.9210     5.8130    11.6850 Si            1 RES     
    1552 O           19.2280    34.6030     2.8800 O             1 RES     
    1553 Si           4.1090     5.0000     5.1770 Si            1 RES     
    1554 O            6.3600    18.8940     8.8740 O             1 RES     
    1555 O            6.2940     0.6990     3.4020 O             1 RES     
    1556 O           15.1280     3.2530    11.2180 O             1 RES     
    1557 Si          24.5940    16.9940    10.8350 Si            1 RES     
    1558 Si          12.2190    47.6710     7.2280 Si            1 RES     
    1559 O           37.6340    43.1750     4.6860 O             1 RES     
    1560 OS          40.8040     9.0420    13.7160 OS            1 RES     
    1561 Si          27.3070    45.2360     8.2250 Si            1 RES     
    1562 O           33.9980    22.9060     7.6760 O             1 RES     
    1563 O           45.1190    37.2770     3.0810 O             1 RES     
    1564 O            6.8140    47.4990     9.5180 O             1 RES     
    1565 O           14.2680    43.1000     4.5660 O             1 RES     
    1566 O           41.9410    38.7310    11.1050 O             1 RES     
    1567 O            5.3760    40.2880     7.4140 O             1 RES     
    1568 O           40.1690    43.8500     4.6990 O             1 RES     
    1569 O           27.7100    40.7150     6.5120 O             1 RES     
    1570 O           40.9140    41.0570     8.2180 O             1 RES     
    1571 O           30.0460    40.2740     5.7160 O             1 RES     
    1572 O           17.3190    47.0070     3.5200 O             1 RES     
    1573 Si          32.9580     4.0070    10.1090 Si            1 RES     
    1574 Si          34.8320    34.0840    12.5900 Si            1 RES     
    1575 OS           7.6280    43.2180    13.5850 OS            1 RES     
    1576 Si          47.7210    26.6370     7.6180 Si            1 RES     
    1577 O           30.9160    26.5840     3.7620 O             1 RES     
    1578 O           23.9220    42.3280    12.3240 O             1 RES     
    1579 OS          25.8880    40.5100    13.6960 OS            1 RES     
    1580 O           36.9150    15.8830     8.6820 O             1 RES     
    1581 O           21.1230    47.8380     9.4230 O             1 RES     
    1582 O           44.2260     1.4090     2.5910 O             1 RES     
    1583 O           21.3940    24.2170     4.6260 O             1 RES     
    1584 O           38.1040    25.3190    12.6240 O             1 RES     
    1585 Si          32.5640    11.8050     8.6730 Si            1 RES     
    1586 O           33.7820    18.0900     7.4940 O             1 RES     
    1587 O            9.2800    39.5730    11.9060 O             1 RES     
    1588 O            1.9720     1.2120     6.1930 O             1 RES     
    1589 O           46.1200    47.9080     8.9550 O             1 RES     
    1590 O           15.0400    45.0910     8.8960 O             1 RES     
    1591 O           40.8230    25.8370     1.9520 O             1 RES     
    1592 O            5.1570    33.7200     3.2020 O             1 RES     
    1593 Si          43.0790    47.3120    11.1950 Si            1 RES     
    1594 O           21.8820    18.2290     2.1210 O             1 RES     
    1595 O            9.7870    41.1050     4.7360 O             1 RES     
    1596 O            6.1870    10.7460     5.5900 O             1 RES     
    1597 O           34.0590    49.7060     8.3830 O             1 RES     
    1598 O           46.9490    42.9200     4.2110 O             1 RES     
    1599 O           40.5380    39.4770     3.5280 O             1 RES     
    1600 O           25.0980    48.5330     8.5770 O             1 RES     
    1601 Si          33.8420    45.4100     9.7360 Si            1 RES     
    1602 O            1.0700    29.6330     2.7850 O             1 RES     
    1603 O           31.7480    46.3360     4.7500 O             1 RES     
    1604 O           46.7180    43.3970    11.7750 O             1 RES     
    1605 O           45.9950    25.4950     4.1030 O             1 RES     
    1606 Si          24.4620    20.2280     4.2260 Si            1 RES     
    1607 O            1.2180    40.0580    10.7650 O             1 RES     
    1608 O           49.7400    19.9800    10.4620 O             1 RES     
    1609 O           36.5850     7.6310    10.1330 O             1 RES     
    1610 O           32.3760    49.8430     3.1810 O             1 RES     
    1611 OS          29.5430    49.3210    12.4220 OS            1 RES     
    1612 Si          38.2170    48.4220    11.3390 Si            1 RES     
    1613 O           27.3500    36.5040    12.2680 O             1 RES     
    1614 O           21.5430    31.5880     9.9880 O             1 RES     
    1615 O           34.2360    27.1980    10.1070 O             1 RES     
    1616 Si          28.9930     5.7800     3.1930 Si            1 RES     
    1617 O           16.7080    12.7920     9.7260 O             1 RES     
    1618 OS           8.3120    28.2320    12.0050 OS            1 RES     
    1619 Si          17.5100    25.8340    12.3960 Si            1 RES     
    1620 O           13.1120    45.4360     5.0930 O             1 RES     
    1621 O            8.6580    38.8890     7.8230 O             1 RES     
    1622 O           25.4570    30.2240     5.8030 O             1 RES     
    1623 OS          15.4610    30.9980    12.0200 OS            1 RES     
    1624 OS          20.9830    17.0100    12.4260 OS            1 RES     
    1625 O            2.5790    23.0990     5.9300 O             1 RES     
    1626 Si          23.6140    20.2550     7.2040 Si            1 RES     
    1627 O           12.8580    28.5260    10.3000 O             1 RES     
    1628 Si          49.4750    31.2930     5.8120 Si            1 RES     
    1629 OS          30.2560     7.0160    13.1400 OS            1 RES     
    1630 O            1.0510    42.4950     2.7780 O             1 RES     
    1631 O           47.2880    39.8280     7.4040 O             1 RES     
    1632 Si          18.5590    46.0310     6.8330 Si            1 RES     
    1633 Si          34.5940    12.1700     2.8700 Si            1 RES     
    1634 Si          22.8780    32.3050    10.6540 Si            1 RES     
    1635 O           40.5280    15.8970     7.9670 O             1 RES     
    1636 O           49.8640    21.4210    12.6100 O             1 RES     
    1637 Si          42.2390     3.0160     7.4680 Si            1 RES     
    1638 OS           3.7080    32.8340    13.4430 OS            1 RES     
    1639 OS           2.5300    34.7780    12.6110 OS            1 RES     
    1640 O           49.6160    16.5430    11.2260 O             1 RES     
    1641 Si          27.6710    25.6370    12.2540 Si            1 RES     
    1642 O            9.4760    25.8230     3.2250 O             1 RES     
    1643 OS          16.1200    18.1080    12.2320 OS            1 RES     
    1644 Si           2.5000    36.8800     8.8330 Si            1 RES     
    1645 O           10.4580    19.5140    10.2270 O             1 RES     
    1646 O           31.5910     0.4320    11.3760 O             1 RES     
    1647 O           23.7620    20.4510     5.6460 O             1 RES     
    1648 Si          32.9600    16.8100     7.8490 Si            1 RES     
    1649 O           45.8420    12.2230     2.9200 O             1 RES     
    1650 Si          32.2490    34.8590     5.3880 Si            1 RES     
    1651 O           43.5730    19.3770     5.9410 O             1 RES     
    1652 O           41.4800    11.2340    10.4330 O             1 RES     
    1653 O           27.1300    19.9590    11.9050 O             1 RES     
    1654 O           15.5340    25.4820     8.9350 O             1 RES     
    1655 O           28.6790    23.3450     2.1370 O             1 RES     
    1656 O           44.5210    17.3100     6.5560 O             1 RES     
    1657 O           13.6740    44.1950     7.0730 O             1 RES     
    1658 OS          14.3730    14.0060    12.1490 OS            1 RES     
    1659 O           15.2320    24.6720     6.5390 O             1 RES     
    1660 O           10.0290     5.5380     8.3100 O             1 RES     
    1661 Si          25.5300    22.6310     7.8570 Si            1 RES     
    1662 O            2.1790    47.9090     3.7720 O             1 RES     
    1663 Si          28.9950    23.7520     5.4270 Si            1 RES     
    1664 Si           3.1650    10.6790    10.1300 Si            1 RES     
    1665 O           16.2890    28.8230     5.1010 O             1 RES     
    1666 O           17.3520    32.1840     7.5460 O             1 RES     
    1667 O           34.8070    39.4040     4.0380 O             1 RES     
    1668 Si          36.5260    42.5080     5.6500 Si            1 RES     
    1669 O           19.9540     6.7290     6.2850 O             1 RES     
    1670 OS           4.6190    12.9200    13.5930 OS            1 RES     
    1671 O            2.3390     4.1420     7.6210 O             1 RES     
    1672 O           41.9660    30.8780     9.8350 O             1 RES     
    1673 Si          35.8660    49.2400     2.9200 Si            1 RES     
    1674 O            8.7220    18.7280     5.6150 O             1 RES     
    1675 OS          14.6250     3.0450    13.8430 OS            1 RES     
    1676 Si          35.9630    37.4350     6.4760 Si            1 RES     
    1677 Si           5.4570    15.2780     7.5350 Si            1 RES     
    1678 OS          27.9400    14.5790    12.6080 OS            1 RES     
    1679 Si          43.3240    41.8310     3.2860 Si            1 RES     
    1680 Si          43.4030    46.2690     6.1900 Si            1 RES     
    1681 Si          29.6460    11.3040     7.7860 Si            1 RES     
    1682 O           36.5260    14.3320    10.5830 O             1 RES     
    1683 O           36.0060    43.7990     6.4990 O             1 RES     
    1684 Si           8.0120    14.4310     6.0600 Si            1 RES     
    1685 O           38.2490    18.3300     8.8490 O             1 RES     
    1686 O           43.7310    19.8350     3.3930 O             1 RES     
    1687 O           27.6680    35.9060     3.0870 O             1 RES     
    1688 O            0.4900    43.5340    10.0180 O             1 RES     
    1689 O           13.6420    35.4190     6.9260 O             1 RES     
    1690 Si          12.9910    27.1330    10.9580 Si            1 RES     
    1691 Si          23.8630    45.8620    11.9930 Si            1 RES     
    1692 O           22.2970    48.3590     5.3120 O             1 RES     
    1693 Si          25.9610     5.2320     7.8690 Si            1 RES     
    1694 O           24.2940     1.8930     2.7680 O             1 RES     
    1695 O           16.4760    37.7040     4.3180 O             1 RES     
    1696 O           22.5200    49.9330    12.4180 O             1 RES     
    1697 O           38.9960     6.4630     3.1540 O             1 RES     
    1698 Si          10.7150    31.6810    12.0640 Si            1 RES     
    1699 O           34.5510    35.6090    12.8760 O             1 RES     
    1700 Si          40.2900    17.2020     6.6710 Si            1 RES     
    1701 O            0.1750    17.8730     2.5890 O             1 RES     
    1702 O           44.9450    25.3230     1.8730 O             1 RES     
    1703 O           25.4540    16.6890     4.0590 O             1 RES     
    1704 O           21.2320    41.1290     3.7910 O             1 RES     
    1705 O           47.9910    20.1320     7.5240 O             1 RES     
    1706 O           28.9260     1.4310     7.6320 O             1 RES     
    1707 Si          24.1400     6.9550     9.6920 Si            1 RES     
    1708 Si          10.0460    45.8610    12.3140 Si            1 RES     
    1709 O           19.5920    46.6460     7.8140 O             1 RES     
    1710 O           49.2820    13.9790     6.4470 O             1 RES     
    1711 Si          32.7610    30.8370     8.0090 Si            1 RES     
    1712 O           36.0280    19.1090    11.6440 O             1 RES     
    1713 O           25.9280    36.2850     9.9660 O             1 RES     
    1714 OS          16.9410     1.5030    13.9450 OS            1 RES     
    1715 Si           8.0890     9.1650     3.4690 Si            1 RES     
    1716 O            7.4840    43.0870     8.6110 O             1 RES     
    1717 O            1.1320    27.7500     4.4110 O             1 RES     
    1718 Si          41.8280    48.1740     7.9800 Si            1 RES     
    1719 Si          38.2600     9.3290     6.6120 Si            1 RES     
    1720 O           40.4440    45.0910    11.7210 O             1 RES     
    1721 O           22.1720    28.9880    12.0870 O             1 RES     
    1722 O           22.5850    42.3680     5.5940 O             1 RES     
    1723 OS           6.3640     0.9860    13.3560 OS            1 RES     
    1724 O           21.1010    18.6210     4.3820 O             1 RES     
    1725 O           28.6020    25.5380    10.9880 O             1 RES     
    1726 Si          45.1290    16.0420     5.8950 Si            1 RES     
    1727 OS          48.0560    45.4530    12.2910 OS            1 RES     
    1728 O           13.8490    13.9900     5.4690 O             1 RES     
    1729 Si          41.6930    22.5180     5.2840 Si            1 RES     
    1730 O            7.7250    10.1780     9.7690 O             1 RES     
    1731 O           15.1780    41.4640     6.7210 O             1 RES     
    1732 O            0.5540    24.3760     6.7230 O             1 RES     
    1733 Si          38.2510    39.6490    11.1770 Si            1 RES     
    1734 O           13.2470     4.9020     3.6700 O             1 RES     
    1735 O           37.0490     8.3670     5.3170 O             1 RES     
    1736 O           18.5340     9.5700     4.7320 O             1 RES     
    1737 O           28.1010     7.5450     8.9600 O             1 RES     
    1738 O            4.4450    49.1510     3.9220 O             1 RES     
    1739 Si          34.1500     0.2340     6.9910 Si            1 RES     
    1740 O           28.9690     0.5530     5.4100 O             1 RES     
    1741 O           25.2910    45.2430    11.4690 O             1 RES     
    1742 O           48.5810     0.0460    12.8100 O             1 RES     
    1743 O            9.1010    41.7060     7.7430 O             1 RES     
    1744 OS          48.7460    16.5420    13.5350 OS            1 RES     
    1745 O            2.8580    31.2520    11.5010 O             1 RES     
    1746 O           28.9490    32.9340     4.0500 O             1 RES     
    1747 Si          46.1820    13.6870    12.6920 Si            1 RES     
    1748 O           22.4060    27.0210     4.5720 O             1 RES     
    1749 O           32.4200    22.4380     3.8130 O             1 RES     
    1750 Si          19.3320    37.9810     7.2560 Si            1 RES     
    1751 OS          13.0730    33.9140    13.3170 OS            1 RES     
    1752 OS           1.1850    49.5760    12.8470 OS            1 RES     
    1753 Si          23.2730    36.9670    11.8210 Si            1 RES     
    1754 O           25.0460    37.2640     7.3890 O             1 RES     
    1755 O           14.9480    19.2350     6.0250 O             1 RES     
    1756 O           20.8760    30.5270     2.4170 O             1 RES     
    1757 Si          47.2880    48.5670     9.7450 Si            1 RES     
    1758 Si          39.1580     5.4970    12.3780 Si            1 RES     
    1759 O            6.1050    35.7080     4.4190 O             1 RES     
    1760 O           36.5980     2.3970    12.3880 O             1 RES     
    1761 Si          15.4760    20.6070     6.7620 Si            1 RES     
    1762 O           14.5900    33.3570    11.3350 O             1 RES     
    1763 Si          17.0470     0.9500    12.4370 Si            1 RES     
    1764 O            2.3170     7.2640     8.3850 O             1 RES     
    1765 O            9.0200    36.3940     7.3610 O             1 RES     
    1766 O            0.4130    36.1710    11.9020 O             1 RES     
    1767 O            7.3160    17.2230    10.7510 O             1 RES     
    1768 O           48.3180    49.4250     8.8890 O             1 RES     
    1769 Si          46.3050     7.2390    11.5810 Si            1 RES     
    1770 Si           0.9870    22.4530    12.7220 Si            1 RES     
    1771 O           26.4740    16.1000     1.6920 O             1 RES     
    1772 O           12.6550    43.2920    11.9990 O             1 RES     
    1773 O            8.1300     3.5870    11.1090 O             1 RES     
    1774 O           12.0960     9.1050     6.9030 O             1 RES     
    1775 Si          34.7290    19.2200    10.7460 Si            1 RES     
    1776 O            9.8690    36.6850     4.6570 O             1 RES     
    1777 O            6.2950    49.5440    10.8970 O             1 RES     
    1778 O           41.9290    17.3280     6.3350 O             1 RES     
    1779 O            9.4350    46.6280     4.5100 O             1 RES     
    1780 O           40.4240     8.4670     2.8820 O             1 RES     
    1781 Si          26.2590     7.5200    11.9100 Si            1 RES     
    1782 O           32.8230    46.4750     9.3520 O             1 RES     
    1783 Si           6.6160    22.6860     3.5980 Si            1 RES     
    1784 O           27.6590    26.8770     8.9330 O             1 RES     
    1785 Si          15.6720    43.1520     3.8470 Si            1 RES     
    1786 O           44.8030    25.8370     6.1180 O             1 RES     
    1787 O           12.3800     0.3960     4.1410 O             1 RES     
@<TRIPOS>BOND
       1     1652      498 1
       2      138      438 1
       3       33      740 1
       4        5      574 1
       5       75     1250 1
       6     1766      813 1
       7     1533     1198 1
       8       66      854 1
       9      761      832 1
      10      176      959 1
      11      407      673 1
      12     1724       77 1
      13      329      570 1
      14      676      871 1
      15      168      434 1
      16       51     1287 1
      17      557     1030 1
      18      516     1118 1
      19     1526     1095 1
      20     1352      905 1
      21     1747      354 1
      22       50      504 1
      23       52      882 1
      24      478      950 1
      25      397     1199 1
      26        2      704 1
      27     1592      298 1
      28     1509      981 1
      29     1758     1428 1
      30      509     1116 1
      31     1040     1047 1
      32     1683     1668 1
      33       62       96 1
      34      797     1147 1
      35     1483      661 1
      36     1319     1132 1
      37     1345      871 1
      38     1407       15 1
      39      187     1151 1
      40     1476      246 1
      41      498      863 1
      42     1496      877 1
      43       55      963 1
      44       10      454 1
      45     1783     1357 1
      46       85     1084 1
      47     1724      436 1
      48     1704      912 1
      49     1407       26 1
      50      392     1251 1
      51      411     1229 1
      52     1785      340 1
      53      694     1111 1
      54      415      924 1
      55     1485      469 1
      56     1393       74 1
      57     1619      564 1
      58      586      692 1
      59      581      845 1
      60      294     1150 1
      61     1626      248 1
      62     1338       62 1
      63      136      252 1
      64     1691     1741 1
      65     1309      691 1
      66     1593      418 1
      67      665     1201 1
      68     1648      883 1
      69     1665      703 1
      70      521      976 1
      71     1544     1440 1
      72      216     1149 1
      73      773     1189 1
      74     1299      165 1
      75     1329      200 1
      76     1385      560 1
      77     1148     1175 1
      78     1487      852 1
      79      130     1115 1
      80     1507      645 1
      81      364      538 1
      82      658     1133 1
      83      526      860 1
      84     1504     1132 1
      85      747      950 1
      86       23      115 1
      87      554     1159 1
      88     1511      841 1
      89     1321     1054 1
      90     1500     1230 1
      91     1576      147 1
      92       43      718 1
      93      194      423 1
      94      548      886 1
      95      365      940 1
      96      270      396 1
      97      283      333 1
      98      427      558 1
      99     1360      613 1
     100     1523      220 1
     101      491     1288 1
     102     1323      595 1
     103      418      932 1
     104     1557      386 1
     105     1710      956 1
     106      343      923 1
     107     1628      881 1
     108      124     1186 1
     109      317     1276 1
     110      165     1128 1
     111     1752      410 1
     112     1547      923 1
     113      463     1293 1
     114     1342     1265 1
     115     1078     1257 1
     116     1760      499 1
     117     1697     1364 1
     118      599      975 1
     119      776      937 1
     120     1196     1205 1
     121     1505     1060 1
     122     1555      846 1
     123     1451      764 1
     124     1331      529 1
     125      922     1068 1
     126       59     1103 1
     127     1460      319 1
     128     1349     1165 1
     129     1664      363 1
     130      504      719 1
     131     1297     1096 1
     132       84      914 1
     133     1726      146 1
     134     1571      345 1
     135     1622     1094 1
     136     1324      524 1
     137     1332      958 1
     138     1684      262 1
     139     1475      485 1
     140     1779      219 1
     141     1414      555 1
     142     1642     1273 1
     143      249      935 1
     144        7     1063 1
     145     1352     1615 1
     146     1677      108 1
     147      328      765 1
     148      123      504 1
     149      105      216 1
     150     1437      298 1
     151      900     1109 1
     152      208      907 1
     153      658     1072 1
     154     1557     1002 1
     155      398     1065 1
     156     1633      891 1
     157     1307     1616 1
     158     1356     1641 1
     159      235      289 1
     160     1419      702 1
     161     1454      628 1
     162     1418      992 1
     163     1764      785 1
     164      572     1015 1
     165     1379     1305 1
     166     1759       79 1
     167     1779      704 1
     168     1191     1254 1
     169      147      701 1
     170      489      765 1
     171     1740     1130 1
     172     1726       99 1
     173      193     1153 1
     174     1640      238 1
     175      769      782 1
     176     1594       77 1
     177      616     1257 1
     178      729     1106 1
     179     1646     1097 1
     180     1700     1431 1
     181     1468      821 1
     182     1761      729 1
     183      684     1235 1
     184      456      932 1
     185      771      810 1
     186     1774      879 1
     187     1541      660 1
     188     1169     1225 1
     189     1659     1249 1
     190      428      436 1
     191      126      485 1
     192      880     1150 1
     193      655     1097 1
     194     1364      936 1
     195     1459      793 1
     196      565      836 1
     197      755     1296 1
     198     1496     1495 1
     199     1739      989 1
     200       27      958 1
     201        8      289 1
     202     1672     1200 1
     203     1732       53 1
     204      449     1055 1
     205      299     1216 1
     206      265      488 1
     207     1646     1257 1
     208      698      888 1
     209     1377     1038 1
     210     1680      359 1
     211     1576      260 1
     212      309      868 1
     213      327      665 1
     214     1718      359 1
     215     1585      965 1
     216     1354     1289 1
     217     1544      610 1
     218      333      465 1
     219     1467      982 1
     220      390      834 1
     221     1159     1255 1
     222      801     1176 1
     223     1650     1118 1
     224     1658      519 1
     225      478      808 1
     226     1502     1241 1
     227      787      906 1
     228      948     1260 1
     229      333      690 1
     230     1596      535 1
     231     1423       81 1
     232      697      848 1
     233     1427      840 1
     234      675      977 1
     235       40      603 1
     236      678      711 1
     237     1675      829 1
     238     1468     1668 1
     239      247      656 1
     240     1333     1251 1
     241     1523     1573 1
     242     1726     1656 1
     243     1548     1486 1
     244      271      318 1
     245      117      214 1
     246       56      282 1
     247      983     1188 1
     248     1609      165 1
     249      206      405 1
     250      237      737 1
     251      957     1116 1
     252      228     1170 1
     253     1700      295 1
     254     1729      608 1
     255     1477      290 1
     256     1455     1408 1
     257     1540      288 1
     258     1446      629 1
     259     1382     1215 1
     260      181      488 1
     261     1401      788 1
     262       40      237 1
     263     1729      522 1
     264      959     1125 1
     265     1528     1125 1
     266     1473     1060 1
     267     1487     1146 1
     268      148     1023 1
     269     1744      238 1
     270     1553     1505 1
     271     1467      953 1
     272     1575      120 1
     273     1512     1127 1
     274     1568      287 1
     275     1401     1007 1
     276      247      593 1
     277     1384      628 1
     278     1457     1048 1
     279     1557      175 1
     280      207     1092 1
     281       14      155 1
     282       14      461 1
     283      361      531 1
     284     1312      696 1
     285     1424      679 1
     286     1372     1247 1
     287      947     1050 1
     288     1386      267 1
     289     1501     1319 1
     290      642     1123 1
     291      983     1199 1
     292     1757      328 1
     293     1492     1273 1
     294      835     1101 1
     295     1516      349 1
     296      217     1238 1
     297     1698      382 1
     298      305     1000 1
     299      499      708 1
     300     1308     1749 1
     301      360      718 1
     302      154      807 1
     303     1682      576 1
     304      267      494 1
     305     1698      780 1
     306     1480      793 1
     307     1738      846 1
     308      652      803 1
     309     1123     1259 1
     310      153      576 1
     311     1331      120 1
     312      435      964 1
     313      264      857 1
     314      673      910 1
     315       18     1159 1
     316      667      884 1
     317      563     1030 1
     318     1750       58 1
     319     1711     1195 1
     320      849      929 1
     321      677     1214 1
     322     1698      816 1
     323      285      610 1
     324      403      833 1
     325       87      130 1
     326     1522     1049 1
     327      119      523 1
     328     1764     1061 1
     329     1350      197 1
     330       61      263 1
     331      137      669 1
     332     1517      435 1
     333     1361     1031 1
     334      490     1094 1
     335     1584      871 1
     336     1221     1249 1
     337       85      549 1
     338     1590      241 1
     339      347     1213 1
     340     1054     1289 1
     341     1677      171 1
     342     1615      342 1
     343      326      482 1
     344      995     1006 1
     345       32      428 1
     346      366     1141 1
     347      319     1285 1
     348       83     1265 1
     349      101      905 1
     350      491     1063 1
     351      546     1251 1
     352     1543      209 1
     353     1787     1075 1
     354      406      896 1
     355     1500     1603 1
     356       35      603 1
     357      594      787 1
     358     1131     1242 1
     359      432     1278 1
     360     1619      423 1
     361     1601     1020 1
     362     1563     1408 1
     363      223      443 1
     364      244      660 1
     365       78      361 1
     366     1409      693 1
     367      129     1061 1
     368     1782     1601 1
     369     1511      687 1
     370      365     1070 1
     371      429     1092 1
     372      685     1235 1
     373      263      384 1
     374     1516      540 1
     375     1735      193 1
     376      268      615 1
     377     1512      630 1
     378     1777      831 1
     379       44     1066 1
     380     1309     1267 1
     381      286     1284 1
     382     1629     1024 1
     383      588     1288 1
     384     1768      137 1
     385     1384      572 1
     386      575      887 1
     387      265      569 1
     388     1767      309 1
     389     1551     1083 1
     390     1520     1119 1
     391     1567     1496 1
     392       98      535 1
     393     1599      782 1
     394     1719     1735 1
     395     1530      365 1
     396     1769     1168 1
     397     1471      702 1
     398      494     1035 1
     399      677     1208 1
     400     1415      430 1
     401      937     1296 1
     402     1321      302 1
     403      174     1028 1
     404     1416      387 1
     405     1303      435 1
     406     1569      134 1
     407      874     1017 1
     408      313      734 1
     409       91      125 1
     410      938     1019 1
     411     1395      254 1
     412     1176     1177 1
     413     1397     1637 1
     414     1339      214 1
     415     1556      440 1
     416      845     1161 1
     417      755     1145 1
     418      210      778 1
     419     1714     1763 1
     420      918     1171 1
     421     1062     1288 1
     422     1776     1393 1
     423       22      140 1
     424     1475     1748 1
     425     1758     1128 1
     426      987     1107 1
     427     1458      762 1
     428     1566     1169 1
     429     1142     1206 1
     430      321      651 1
     431     1485      841 1
     432      700     1238 1
     433      390      524 1
     434     1497      338 1
     435     1075     1272 1
     436     1317     1021 1
     437        1     1256 1
     438     1508      398 1
     439     1421      776 1
     440      293     1191 1
     441      134      730 1
     442      174      380 1
     443     1684      590 1
     444       28       74 1
     445     1472     1292 1
     446     1300     1130 1
     447      525      865 1
     448      111      430 1
     449     1650      991 1
     450      278     1028 1
     451      327      634 1
     452       43      810 1
     453      582     1106 1
     454     1537      711 1
     455     1367      393 1
     456      469      542 1
     457     1754     1132 1
     458      568      585 1
     459     1661      492 1
     460      301     1097 1
     461       39     1123 1
     462       97      781 1
     463     1719      105 1
     464     1376      157 1
     465     1527       97 1
     466      728     1069 1
     467     1738      338 1
     468      510      833 1
     469     1666      188 1
     470      492      841 1
     471      253      435 1
     472     1416      425 1
     473      564      911 1
     474     1647     1606 1
     475      296     1034 1
     476      135      347 1
     477     1372      305 1
     478      367     1081 1
     479     1366       10 1
     480      173      687 1
     481     1612       88 1
     482      598     1099 1
     483      232      994 1
     484     1616      184 1
     485      608     1247 1
     486      848      923 1
     487      547     1242 1
     488      245     1223 1
     489      805     1042 1
     490      704     1138 1
     491     1312     1395 1
     492      177      777 1
     493     1402      195 1
     494      296     1274 1
     495     1023     1096 1
     496      587      955 1
     497      723      963 1
     498     1469     1219 1
     499     1637     1001 1
     500      501      570 1
     501      231     1032 1
     502     1509     1479 1
     503      530      796 1
     504      699     1271 1
     505      240      477 1
     506     1521      949 1
     507      619      694 1
     508     1345     1200 1
     509      412      725 1
     510     1394      720 1
     511      115      701 1
     512      123      658 1
     513       23      844 1
     514      190     1162 1
     515     1112     1200 1
     516     1346      800 1
     517     1472      859 1
     518      258      782 1
     519      607      783 1
     520     1335       52 1
     521      601      784 1
     522     1691      189 1
     523      522     1256 1
     524     1624       24 1
     525      394      903 1
     526     1708      299 1
     527      795      904 1
     528      250     1000 1
     529     1344     1041 1
     530      815     1200 1
     531      119     1202 1
     532     1414      534 1
     533     1396      287 1
     534     1705      921 1
     535     1785     1565 1
     536     1704     1548 1
     537     1558      705 1
     538     1258     1273 1
     539      100      417 1
     540      811      985 1
     541     1475      164 1
     542     1125     1252 1
     543      310      775 1
     544     1503     1203 1
     545      629     1268 1
     546     1753       54 1
     547      214      363 1
     548      559     1281 1
     549      233      829 1
     550       73     1139 1
     551     1525     1588 1
     552      154      920 1
     553     1043     1234 1
     554     1762      948 1
     555      154     1039 1
     556     1705      285 1
     557      238     1064 1
     558     1486       84 1
     559     1403      172 1
     560     1535       38 1
     561     1363      220 1
     562     1377     1146 1
     563     1606      760 1
     564     1657     1088 1
     565       32      712 1
     566      406      814 1
     567     1375     1271 1
     568       29      871 1
     569      404     1068 1
     570     1383       37 1
     571      542     1053 1
     572      192     1011 1
     573     1300      326 1
     574      149      508 1
     575      176      493 1
     576     1690      934 1
     577     1424      963 1
     578     1425     1017 1
     579     1722     1548 1
     580      586      798 1
     581     1450     1219 1
     582      425      457 1
     583       53      461 1
     584       38      186 1
     585      794     1235 1
     586     1123     1248 1
     587      145      880 1
     588     1542     1278 1
     589     1385     1009 1
     590      809      950 1
     591       60      406 1
     592     1469      639 1
     593      254     1134 1
     594       20      231 1
     595      761     1276 1
     596     1443      904 1
     597       54      812 1
     598      275      508 1
     599      411      979 1
     600      130      195 1
     601       86      697 1
     602      576      987 1
     603      331      602 1
     604      843     1024 1
     605      808     1035 1
     606     1463      935 1
     607     1729     1021 1
     608     1742      765 1
     609     1506     1364 1
     610     1124     1268 1
     611      101      941 1
     612     1309      990 1
     613      347      974 1
     614      724     1234 1
     615      393     1038 1
     616      118     1253 1
     617      186     1281 1
     618      464      672 1
     619     1399      850 1
     620     1325      988 1
     621     1755     1761 1
     622     1621     1239 1
     623      689     1034 1
     624     1169     1228 1
     625     1498     1295 1
     626     1711      622 1
     627     1762      735 1
     628     1612      401 1
     629      281      808 1
     630      243      817 1
     631      902      973 1
     632     1390      822 1
     633     1499     1309 1
     634       22       28 1
     635      369      406 1
     636     1332      457 1
     637      368      867 1
     638       35       64 1
     639     1399      217 1
     640     1755     1410 1
     641      276      800 1
     642      325     1275 1
     643      607      745 1
     644      107      305 1
     645     1781       92 1
     646     1654      194 1
     647     1502      103 1
     648      508     1264 1
     649     1456     1282 1
     650     1673      617 1
     651      153      875 1
     652     1613      654 1
     653     1413     1004 1
     654     1325      116 1
     655      112      860 1
     656     1387      150 1
     657       64      668 1
     658      800     1294 1
     659      850      912 1
     660      481      791 1
     661     1314     1213 1
     662     1514     1192 1
     663      812      926 1
     664     1543      867 1
     665      201     1265 1
     666       45      921 1
     667      827      938 1
     668      980     1004 1
     669     1358      312 1
     670     1358      939 1
     671       31      164 1
     672      221      804 1
     673      562     1242 1
     674     1650      551 1
     675     1608      160 1
     676      382      640 1
     677       10      379 1
     678       16       68 1
     679       28      353 1
     680      521     1269 1
     681     1510      968 1
     682      172     1168 1
     683     1343     1082 1
     684     1432      120 1
     685     1749      383 1
     686      565     1258 1
     687      701      893 1
     688     1532     1649 1
     689      774      999 1
     690     1733     1298 1
     691      326     1186 1
     692     1426     1261 1
     693      547      879 1
     694      162     1147 1
     695     1444      764 1
     696     1379     1605 1
     697     1451     1109 1
     698      424     1239 1
     699      802      945 1
     700      789     1237 1
     701      939     1075 1
     702      397      899 1
     703     1685       89 1
     704      915     1184 1
     705     1420     1154 1
     706      380     1059 1
     707     1414      998 1
     708      566      958 1
     709      280      667 1
     710       71      475 1
     711     1333     1355 1
     712      188      786 1
     713     1311      725 1
     714      645     1100 1
     715     1461      498 1
     716      558      847 1
     717      737     1289 1
     718     1501     1441 1
     719     1328      138 1
     720       10      308 1
     721      223      916 1
     722      393      465 1
     723      394     1114 1
     724     1672     1147 1
     725     1014     1185 1
     726     1641      251 1
     727     1519     1656 1
     728     1519      929 1
     729      181      780 1
     730       20      764 1
     731      936     1154 1
     732      226      609 1
     733       65     1178 1
     734     1655      738 1
     735     1781      334 1
     736     1553     1538 1
     737     1663     1074 1
     738      587      810 1
     739      487      544 1
     740     1477      727 1
     741      364     1285 1
     742     1590      393 1
     743      551      824 1
     744       88      396 1
     745      281      955 1
     746      259      778 1
     747      786     1071 1
     748       86     1234 1
     749     1355      676 1
     750      291      813 1
     751        8     1031 1
     752      915     1267 1
     753      219      913 1
     754     1022     1211 1
     755     1676      352 1
     756      402     1014 1
     757     1487      828 1
     758      687     1084 1
     759     1692     1011 1
     760      861     1163 1
     761      443     1063 1
     762      249     1061 1
     763     1673      884 1
     764      756      921 1
     765      746     1139 1
     766      430      678 1
     767     1708      370 1
     768      618     1010 1
     769     1731      444 1
     770     1634     1614 1
     771      821     1177 1
     772     1302     1680 1
     773      143      331 1
     774     1525      414 1
     775      172      213 1
     776      193      514 1
     777     1742      803 1
     778     1725     1641 1
     779     1540      700 1
     780       17       37 1
     781     1509       99 1
     782     1369      649 1
     783     1671     1060 1
     784      915     1117 1
     785     1739      450 1
     786      464      575 1
     787     1558     1138 1
     788     1546      436 1
     789     1693     1528 1
     790      388      503 1
     791       95      319 1
     792     1564      831 1
     793     1347      375 1
     794      582      647 1
     795      991     1109 1
     796     1623      735 1
     797     1411      484 1
     798     1522       45 1
     799     1423      652 1
     800     1606      198 1
     801     1514      878 1
     802      252     1220 1
     803        7      958 1
     804      161      618 1
     805      912     1227 1
     806     1421     1440 1
     807       13      220 1
     808     1597     1266 1
     809      874     1069 1
     810     1431       89 1
     811     1741      694 1
     812     1757     1768 1
     813       78      396 1
     814       87      806 1
     815     1568      580 1
     816     1382      476 1
     817      948      972 1
     818     1640      833 1
     819      309      739 1
     820     1362       64 1
     821       25      952 1
     822      938      990 1
     823     1445      483 1
     824      629     1046 1
     825     1661      206 1
     826     1401      749 1
     827     1585      453 1
     828      935     1142 1
     829     1593      540 1
     830      860     1185 1
     831      271      664 1
     832      854     1104 1
     833     1487      746 1
     834     1728      268 1
     835      263      814 1
     836        6       85 1
     837      286     1131 1
     838      260      624 1
     839     1311     1585 1
     840     1315       62 1
     841      591      831 1
     842       49      194 1
     843      292     1005 1
     844     1374      444 1
     845      420     1105 1
     846      106      861 1
     847     1636      997 1
     848     1368      493 1
     849     1353     1593 1
     850      719     1114 1
     851      625      894 1
     852     1643     1085 1
     853     1661      870 1
     854     1719       93 1
     855      766     1238 1
     856      284     1148 1
     857      427      879 1
     858     1322      558 1
     859     1476     1264 1
     860      261      849 1
     861     1326      188 1
     862     1354      693 1
     863     1481      623 1
     864     1500      218 1
     865      624      825 1
     866      486      546 1
     867     1730      344 1
     868     1718      442 1
     869      355     1204 1
     870      860     1164 1
     871     1638      971 1
     872      885     1233 1
     873     1690      351 1
     874      653      720 1
     875     1578      571 1
     876      361      721 1
     877     1559      287 1
     878      280      375 1
     879      895     1132 1
     880     1584      250 1
     881      182      899 1
     882     1544      931 1
     883     1669      133 1
     884      114     1206 1
     885     1484      704 1
     886      182      840 1
     887     1478      932 1
     888     1688      670 1
     889      756      851 1
     890      903      998 1
     891     1390      772 1
     892      732     1130 1
     893      452      640 1
     894     1677      590 1
     895      332      519 1
     896      331      686 1
     897      691      787 1
     898      554     1121 1
     899      708     1092 1
     900     1446      925 1
     901      248     1196 1
     902     1622       31 1
     903      388     1006 1
     904      911     1180 1
     905     1435      578 1
     906     1470      849 1
     907     1644      339 1
     908      710      821 1
     909      228     1121 1
     910      361     1250 1
     911     1758     1046 1
     912       46       72 1
     913       93      367 1
     914      387      411 1
     915     1670      214 1
     916      598      984 1
     917      732      876 1
     918      437      599 1
     919      649     1104 1
     920     1703     1435 1
     921      404     1239 1
     922     1784     1297 1
     923     1034     1290 1
     924     1634      167 1
     925       27     1171 1
     926     1778     1519 1
     927     1383      826 1
     928      573      886 1
     929     1475     1330 1
     930      645     1160 1
     931     1662      338 1
     932      342      666 1
     933       15      697 1
     934      212      876 1
     935      142     1263 1
     936      785     1090 1
     937     1489      673 1
     938     1410     1292 1
     939      227     1124 1
     940      517     1124 1
     941     1209     1270 1
     942     1456     1240 1
     943      321      358 1
     944       14      604 1
     945     1715      823 1
     946     1392     1349 1
     947      342      593 1
     948     1681      170 1
     949      211     1059 1
     950     1767      770 1
     951     1449      902 1
     952     1297      957 1
     953      788     1212 1
     954       92     1024 1
     955      122      459 1
     956       90      782 1
     957      317      537 1
     958     1671      665 1
     959     1775     1712 1
     960     1776      643 1
     961      148     1094 1
     962     1775     1226 1
     963      226      527 1
     964      869     1089 1
     965      887     1102 1
     966     1412      560 1
     967     1545      408 1
     968     1691     1193 1
     969     1635      880 1
     970       42      480 1
     971     1674     1148 1
     972      813     1108 1
     973      187     1261 1
     974      792     1028 1
     975     1663     1218 1
     976      738     1074 1
     977     1027     1114 1
     978     1438      866 1
     979      298      767 1
     980      357      484 1
     981      266      636 1
     982     1607     1198 1
     983      272      811 1
     984     1783     1365 1
     985      344      847 1
     986      464     1098 1
     987      285     1049 1
     988      529      774 1
     989     1545      433 1
     990     1686      758 1
     991     1494      831 1
     992      659      777 1
     993      472      703 1
     994      799     1206 1
     995       21      405 1
     996     1304       39 1
     997      638      949 1
     998      310      879 1
     999     1757     1589 1
    1000     1757      371 1
    1001     1693      754 1
    1002     1543      125 1
    1003     1561      343 1
    1004      735     1115 1
    1005      320      380 1
    1006      449      862 1
    1007     1525     1025 1
    1008      113     1189 1
    1009     1515      411 1
    1010     1610      667 1
    1011       76      519 1
    1012       19      158 1
    1013     1663     1165 1
    1014      627     1148 1
    1015      255      463 1
    1016       25       31 1
    1017     1616      855 1
    1018      453     1107 1
    1019      495      521 1
    1020     1783      688 1
    1021      344      734 1
    1022     1551     1521 1
    1023      208      386 1
    1024      887     1083 1
    1025     1770     1254 1
    1026      181      545 1
    1027      204      464 1
    1028     1210     1266 1
    1029     1304     1051 1
    1030      687      699 1
    1031     1414     1184 1
    1032      755      889 1
    1033     1453     1135 1
    1034       79      877 1
    1035     1599     1176 1
    1036       21      128 1
    1037      144     1044 1
    1038      458     1271 1
    1039     1403      798 1
    1040     1687     1501 1
    1041     1381      137 1
    1042      486      797 1
    1043      162      483 1
    1044     1628      885 1
    1045     1620     1088 1
    1046     1427     1570 1
    1047       56     1036 1
    1048      451      668 1
    1049       11      475 1
    1050       57      928 1
    1051     1723     1453 1
    1052     1483      376 1
    1053     1514     1444 1
    1054      364      683 1
    1055     1510      784 1
    1056     1650      696 1
    1057       46      133 1
    1058     1578       44 1
    1059     1693      818 1
    1060     1341      426 1
    1061     1534     1114 1
    1062     1748      128 1
    1063     1387     1249 1
    1064      424     1077 1
    1065      216     1245 1
    1066      367      513 1
    1067      208     1136 1
    1068      444      653 1
    1069     1576      620 1
    1070     1617      838 1
    1071      740      980 1
    1072      346     1107 1
    1073      830      911 1
    1074      415      633 1
    1075     1559     1668 1
    1076     1406      262 1
    1077     1388      824 1
    1078      597     1283 1
    1079      180     1171 1
    1080      377      477 1
    1081      110      288 1
    1082       61      500 1
    1083      662      925 1
    1084      319      562 1
    1085     1421     1145 1
    1086      410     1208 1
    1087     1318      864 1
    1088       82      516 1
    1089      856     1179 1
    1090     1783      506 1
    1091       29      305 1
    1092     1614      806 1
    1093      511      838 1
    1094     1645      647 1
    1095     1350      324 1
    1096     1553     1166 1
    1097       24     1079 1
    1098     1432     1457 1
    1099     1337      338 1
    1100     1554      802 1
    1101      621     1105 1
    1102     1529      503 1
    1103     1785      768 1
    1104      772     1243 1
    1105      256      330 1
    1106     1462      845 1
    1107      200     1019 1
    1108       70     1169 1
    1109       13     1097 1
    1110      487     1244 1
    1111      999     1048 1
    1112       49       52 1
    1113     1699     1574 1
    1114      578      589 1
    1115      561      901 1
    1116      839      861 1
    1117     1379      502 1
    1118     1548      828 1
    1119     1726     1080 1
    1120     1321     1286 1
    1121       36     1030 1
    1122      292     1078 1
    1123      681     1085 1
    1124     1700     1635 1
    1125      211      256 1
    1126      391      971 1
    1127     1301      141 1
    1128      499     1210 1
    1129      516      650 1
    1130     1561     1043 1
    1131      176     1102 1
    1132     1410      149 1
    1133      838      906 1
    1134     1634      528 1
    1135     1442     1004 1
    1136     1308      121 1
    1137     1370      242 1
    1138      589      865 1
    1139     1753       47 1
    1140     1677      659 1
    1141       79      501 1
    1142     1772     1216 1
    1143     1349      178 1
    1144      543     1243 1
    1145     1162     1190 1
    1146      714     1107 1
    1147     1617      903 1
    1148     1754      116 1
    1149     1091     1141 1
    1150      318     1116 1
    1151      101     1093 1
    1152      238      605 1
    1153      468      555 1
    1154      725      883 1
    1155     1544     1058 1
    1156     1360     1620 1
    1157     1710     1030 1
    1158     1376      454 1
    1159      544      570 1
    1160     1653     1271 1
    1161      594      949 1
    1162     1065     1069 1
    1163      667      989 1
    1164      205      765 1
    1165     1409      890 1
    1166     1368     1005 1
    1167       62      179 1
    1168      132      826 1
    1169     1452      194 1
    1170      178     1053 1
    1171     1763      548 1
    1172      341     1077 1
    1173      127      494 1
    1174      955     1076 1
    1175      853      956 1
    1176     1611     1257 1
    1177     1784      469 1
    1178      820      866 1
    1179      576      970 1
    1180      930     1008 1
    1181      559     1072 1
    1182      221     1232 1
    1183      323      599 1
    1184     1471     1006 1
    1185      432      937 1
    1186     1722      304 1
    1187     1338      345 1
    1188     1707      754 1
    1189      525      549 1
    1190       84      229 1
    1191     1503     1026 1
    1192     1381      677 1
    1193     1481     1461 1
    1194     1600       68 1
    1195       24      203 1
    1196     1681      234 1
    1197      507      921 1
    1198      611      843 1
    1199      122      451 1
    1200      182     1228 1
    1201     1324      109 1
    1202      533      873 1
    1203      372     1247 1
    1204     1535      448 1
    1205      104      512 1
    1206     1364      951 1
    1207     1425      142 1
    1208      977     1279 1
    1209      245      933 1
    1210     1176     1291 1
    1211     1399       30 1
    1212      253      254 1
    1213      718     1156 1
    1214      596      730 1
    1215      609     1170 1
    1216      152      741 1
    1217     1721      169 1
    1218     1191     1222 1
    1219      711      868 1
    1220     1321      985 1
    1221     1637      517 1
    1222     1343      892 1
    1223      272     1121 1
    1224      210      638 1
    1225     1556      829 1
    1226      160     1222 1
    1227     1557     1436 1
    1228      584      720 1
    1229     1391      211 1
    1230      378      580 1
    1231       23      819 1
    1232      715     1273 1
    1233      252      295 1
    1234     1708     1163 1
    1235     1593      270 1
    1236     1423       55 1
    1237     1466      903 1
    1238       94      110 1
    1239      762     1055 1
    1240       42      442 1
    1241     1639      813 1
    1242     1737      560 1
    1243     1520      679 1
    1244        9      930 1
    1245       71      930 1
    1246       57      417 1
    1247      255      670 1
    1248     1437       28 1
    1249      894      979 1
    1250     1771     1435 1
    1251     1676      710 1
    1252     1595      954 1
    1253     1644      329 1
    1254      142      967 1
    1255     1334      764 1
    1256     1761     1037 1
    1257     1477     1572 1
    1258     1448      383 1
    1259      568     1195 1
    1260        1      221 1
    1261     1417     1012 1
    1262      642     1170 1
    1263      395      679 1
    1264      520     1194 1
    1265       19      662 1
    1266     1562        5 1
    1267      219     1100 1
    1268     1676      641 1
    1269      785     1201 1
    1270      583     1139 1
    1271     1355      518 1
    1272      440      626 1
    1273      769     1287 1
    1274     1393      356 1
    1275     1664      757 1
    1276      117      567 1
    1277     1604      397 1
    1278     1416      942 1
    1279     1516     1122 1
    1280      410      751 1
    1281       98     1158 1
    1282     1162     1237 1
    1283     1435      747 1
    1284     1608      997 1
    1285     1553      538 1
    1286     1717     1233 1
    1287      345      650 1
    1288     1504     1399 1
    1289     1360      713 1
    1290     1636     1770 1
    1291      266      355 1
    1292     1355      107 1
    1293     1352      156 1
    1294       89      372 1
    1295      654      759 1
    1296       65     1189 1
    1297     1306      770 1
    1298     1483     1161 1
    1299      150      646 1
    1300     1770      479 1
    1301     1481      389 1
    1302     1619      362 1
    1303      175     1050 1
    1304      599     1027 1
    1305      365      514 1
    1306     1759      298 1
    1307     1418      709 1
    1308     1526      887 1
    1309     1676     1192 1
    1310     1626      870 1
    1311     1549     1308 1
    1312      559     1110 1
    1313     1393     1765 1
    1314     1408      982 1
    1315     1420      572 1
    1316     1318      736 1
    1317      952      969 1
    1318     1392     1023 1
    1319      841     1218 1
    1320     1498      545 1
    1321     1472      717 1
    1322      317      325 1
    1323      565      918 1
    1324       50      468 1
    1325      628      908 1
    1326     1728      508 1
    1327      300     1205 1
    1328       17      791 1
    1329      950      993 1
    1330      601     1261 1
    1331      798     1090 1
    1332     1415      415 1
    1333      269     1106 1
    1334     1715      986 1
    1335     1713      116 1
    1336     1034     1221 1
    1337     1763      626 1
    1338     1781       11 1
    1339     1374      954 1
    1340      553     1103 1
    1341      268      534 1
    1342     1551     1327 1
    1343      563      994 1
    1344      728     1075 1
    1345     1660      658 1
    1346     1648        6 1
    1347      146      994 1
    1348     1750      742 1
    1349     1689      385 1
    1350      460      519 1
    1351     1564      999 1
    1352      561      978 1
    1353      460     1085 1
    1354      580     1181 1
    1355     1323      473 1
    1356      139      952 1
    1357      241      944 1
    1358      824      933 1
    1359      805      965 1
    1360      106      471 1
    1361      398     1217 1
    1362      842     1191 1
    1363     1709     1632 1
    1364      963     1214 1
    1365     1626     1647 1
    1366     1648     1586 1
    1367     1317     1232 1
    1368     1361      449 1
    1369     1503      635 1
    1370     1769      901 1
    1371      224      368 1
    1372     1630      603 1
    1373      579     1233 1
    1374     1536       44 1
    1375     1707      674 1
    1376      197     1271 1
    1377     1632      727 1
    1378     1430     1402 1
    1379     1458     1031 1
    1380      748     1274 1
    1381     1301      455 1
    1382     1306     1194 1
    1383      855      876 1
    1384      124      204 1
    1385     1612      429 1
    1386      102      304 1
    1387     1314      166 1
    1388      240      285 1
    1389     1456      646 1
    1390     1653      208 1
    1391     1634      969 1
    1392     1679      258 1
    1393     1508      259 1
    1394     1344      257 1
    1395      199      925 1
    1396      477     1182 1
    1397     1434      417 1
    1398       12     1247 1
    1399     1745      971 1
    1400     1549      525 1
    1401     1040     1087 1
    1402     1398     1679 1
    1403     1522      733 1
    1404     1406      726 1
    1405     1561       16 1
    1406     1628       48 1
    1407     1560     1277 1
    1408      366     1277 1
    1409      244     1071 1
    1410       23      507 1
    1411      210      672 1
    1412     1422      134 1
    1413      878      928 1
    1414     1301      675 1
    1415     1524     1198 1
    1416     1517      486 1
    1417     1683       75 1
    1418     1512      962 1
    1419      634      669 1
    1420     1713      654 1
    1421     1386     1173 1
    1422      447     1288 1
    1423      104     1129 1
    1424     1558     1380 1
    1425      974     1151 1
    1426       32      202 1
    1427      487      961 1
    1428     1339      777 1
    1429      163     1077 1
    1430     1314      316 1
    1431     1667      698 1
    1432     1542      535 1
    1433       72      856 1
    1434     1438      226 1
    1435     1362     1003 1
    1436      132      188 1
    1437     1786     1304 1
    1438     1467       51 1
    1439     1731     1377 1
    1440     1310      286 1
    1441       56      509 1
    1442      405      898 1
    1443      466     1275 1
    1444     1753      759 1
    1445     1460     1390 1
    1446     1407       83 1
    1447      459     1155 1
    1448      620      894 1
    1449     1386      320 1
    1450      274     1092 1
    1451     1747      389 1
    1452     1727      803 1
    1453     1404      259 1
    1454     1402      892 1
    1455     1491      857 1
    1456      313      633 1
    1457     1370      709 1
    1458      347      515 1
    1459     1631      693 1
    1460      140     1295 1
    1461     1613      854 1
    1462     1601     1270 1
    1463     1445      321 1
    1464     1576      190 1
    1465     1482      692 1
    1466      108      770 1
    1467     1685     1022 1
    1468     1682      294 1
    1469     1736      915 1
    1470     1715      722 1
    1471     1012     1282 1
    1472     1573     1008 1
    1473     1350      273 1
    1474     1402       58 1
    1475     1464      761 1
    1476     1040     1117 1
    1477      536     1277 1
    1478      697      790 1
    1479      137     1029 1
    1480      283      886 1
    1481     1417      647 1
    1482     1637      199 1
    1483     1513      928 1
    1484      477     1080 1
    1485     1378       91 1
    1486     1406      627 1
    1487      131     1256 1
    1488     1719     1015 1
    1489      846     1073 1
    1490     1316     1050 1
    1491      139      660 1
    1492     1397     1154 1
    1493     1747      311 1
    1494       31      496 1
    1495      185      829 1
    1496     1709     1178 1
    1497       75     1152 1
    1498     1730      567 1
    1499      303      629 1
    1500      690     1178 1
    1501      779     1003 1
    1502      145      498 1
    1503     1335     1106 1
    1504     1708      763 1
    1505      664      793 1
    1506      413      971 1
    1507     1541     1343 1
    1508      304      773 1
    1509      862     1124 1
    1510      712      817 1
    1511     1680     1122 1
    1512      239      954 1
    1513     1312     1032 1
    1514      263     1225 1
    1515      750     1159 1
    1516     1377      340 1
    1517     1310      468 1
    1518     1740     1502 1
    1519      467      647 1
    1520     1427      378 1
    1521     1498      242 1
    1522     1491      289 1
    1523     1746      824 1
    1524      259      336 1
    1525      790      968 1
    1526      497     1274 1
    1527      702      844 1
    1528      529     1041 1
    1529     1532     1479 1
    1530      227      550 1
    1531     1429     1747 1
    1532      557      692 1
    1533     1574      644 1
    1534     1459      300 1
    1535     1696      176 1
    1536       79      512 1
    1537      414      846 1
    1538      900     1151 1
    1539      791      830 1
    1540     1534      313 1
    1541     1328      284 1
    1542     1626      127 1
    1543     1758      381 1
    1544      184     1179 1
    1545     1347      876 1
    1546     1509      157 1
    1547     1334     1574 1
    1548      110     1202 1
    1549     1644     1108 1
    1550     1382        3 1
    1551     1474     1069 1
    1552      160     1058 1
    1553     1679     1181 1
    1554      374      654 1
    1555      112     1009 1
    1556     1565     1088 1
    1557     1370      566 1
    1558     1580     1022 1
    1559      239     1088 1
    1560      200      402 1
    1561      857     1187 1
    1562     1579       44 1
    1563     1531      908 1
    1564       12      702 1
    1565     1591      221 1
    1566     1037     1249 1
    1567      245      585 1
    1568      684     1151 1
    1569     1763      967 1
    1570      344     1133 1
    1571      677      695 1
    1572     1701     1253 1
    1573      355      632 1
    1574       85      222 1
    1575      739     1194 1
    1576      467      902 1
    1577     1447     1044 1
    1578     1454     1376 1
    1579     1659       37 1
    1580      237     1086 1
    1581     1439      287 1
    1582      114      559 1
    1583     1641     1016 1
    1584      342      518 1
    1585     1743     1239 1
    1586      438      931 1
    1587      511      817 1
    1588     1318      556 1
    1589     1400     1360 1
    1590       66     1261 1
    1591     1401      927 1
    1592     1304      893 1
    1593      168     1246 1
    1594        4      738 1
    1595       42     1001 1
    1596      293     1194 1
    1597     1699     1235 1
    1598       91      433 1
    1599     1507      471 1
    1600     1329     1179 1
    1601     1484     1243 1
    1602      561      976 1
    1603      203      636 1
    1604      459      966 1
    1605      533      940 1
    1606     1341     1101 1
    1607      395      463 1
    1608      126     1067 1
    1609     1717       14 1
    1610      618      993 1
    1611       68      192 1
    1612      725      781 1
    1613       80     1009 1
    1614      335      740 1
    1615     1531      455 1
    1616     1644     1286 1
    1617      724      835 1
    1618     1696     1095 1
    1619     1480     1661 1
    1620      142      233 1
    1621     1413      618 1
    1622      444      466 1
    1623      793      898 1
    1624     1352      297 1
    1625      639      897 1
    1626     1453      350 1
    1627      558      722 1
    1628     1313      649 1
    1629      581      925 1
    1630      274     1209 1
    1631     1297      496 1
    1632      400      417 1
    1633     1715     1140 1
    1634     1382     1260 1
    1635      368     1229 1
    1636      405      796 1
    1637      536      550 1
    1638     1490       24 1
    1639       36      833 1
    1640      159      368 1
    1641      222      808 1
    1642      640     1244 1
    1643       19      873 1
    1644     1182     1253 1
    1645     1674      902 1
    1646      168      617 1
    1647     1753     1082 1
    1648      161      525 1
    1649       53     1039 1
    1650     1518      956 1
    1651      133      897 1
    1652      300     1197 1
    1653     1367     1632 1
    1654        5      441 1
    1655     1725      469 1
    1656      927      977 1
    1657     1550      436 1
    1658      450      533 1
    1659     1695      720 1
    1660      705     1017 1
    1661      311     1044 1
    1662     1666      119 1
    1663      784     1033 1
    1664      385      569 1
    1665      946     1231 1
    1666      373     1206 1
    1667     1780     1531 1
    1668     1341      616 1
    1669       91      505 1
    1670      186      635 1
    1671     1494      743 1
    1672     1323     1226 1
    1673      251      271 1
    1674     1524      983 1
    1675      643      663 1
    1676      723      999 1
    1677      743     1073 1
    1678      196      812 1
    1679      380     1076 1
    1680     1651      758 1
    1681      191      614 1
    1682       47      988 1
    1683     1570      390 1
    1684     1482     1664 1
    1685     1733      201 1
    1686      516      648 1
    1687     1535     1660 1
    1688     1552     1238 1
    1689      612      614 1
    1690     1581     1178 1
    1691     1466      268 1
    1692      225     1209 1
    1693      265      523 1
    1694     1299      220 1
    1695     1450      775 1
    1696      845     1246 1
    1697      761      972 1
    1698      603     1293 1
    1699      670     1188 1
    1700      787     1156 1
    1701      445     1158 1
    1702      273      875 1
    1703     1663      121 1
    1704      375     1070 1
    1705     1380      241 1
    1706     1569      968 1
    1707     1498      452 1
    1708     1449     1472 1
    1709     1545      579 1
    1710      911     1197 1
    1711      703      752 1
    1712      101     1183 1
    1713     1607     1105 1
    1714     1720      932 1
    1715      341      946 1
    1716      303      550 1
    1717       72      827 1
    1718     1025     1060 1
    1719      349     1003 1
    1720      570     1231 1
    1721     1785     1389 1
    1722     1316      810 1
    1723      875      996 1
    1724      399     1063 1
    1725     1773      186 1
    1726     1328      945 1
    1727     1739      661 1
    1728      169      631 1
    1729     1716      529 1
    1730     1457      422 1
    1731      120      763 1
    1732     1606      236 1
    1733      904     1136 1
    1734     1539     1433 1
    1735     1543     1745 1
    1736      716      904 1
    1737     1453      637 1
    1738     1488     1585 1
    1739      307     1209 1
    1740     1703     1386 1
    1741     1690     1627 1
    1742      736     1094 1
    1743      158      165 1
    1744     1478      182 1
    1745      278      817 1
    1746     1540      742 1
    1747     1428     1277 1
    1748     1330      530 1
    1749      348     1068 1
    1750      707      741 1
    1751      917     1095 1
    1752      645      745 1
    1753      326      818 1
    1754     1684     1322 1
    1755     1583      128 1
    1756        2      743 1
    1757      798     1007 1
    1758       73      988 1
    1759      261      598 1
    1760     1739     1597 1
    1761      141     1154 1
    1762     1566     1324 1
    1763      177      567 1
    1764     1732      894 1
    1765      521     1113 1
    1766      762     1029 1
    1767     1756      126 1
    1768     1302      580 1
    1769     1691      306 1
    1770      821      834 1
    1771     1695     1540 1
    1772      116     1033 1
    1773     1219     1284 1
    1774       67     1125 1
    1775      530      606 1
    1776     1538     1158 1
    1777     1371       72 1
    1778      721     1265 1
    1779     1348      172 1
    1780     1602     1233 1
    1781     1573      301 1
    1782     1442     1633 1
    1783     1410     1236 1
    1784     1654       37 1
    1785      757      777 1
    1786       42      966 1
    1787      440     1217 1
    1788     1407     1020 1
    1789      457      625 1
    1790      144      692 1
    1791     1476      924 1
    1792     1398      890 1
    1793     1369     1116 1
    1794       69     1119 1
    1795       82      698 1
    1796      358      500 1
    1797      376     1266 1
    1798     1470      851 1
    1799      571     1111 1
    1800     1388      245 1
    1801      312      398 1
    1802       77      760 1
    1803      449      480 1
    1804      135      784 1
    1805      636      681 1
    1806     1390      448 1
    1807      102     1139 1
    1808     1694      614 1
    1809     1351      375 1
    1810     1416      602 1
    1811     1516     1589 1
    1812      988     1066 1
    1813      643     1207 1
    1814     1662     1119 1
    1815     1545      180 1
    1816      250      753 1
    1817     1716      471 1
    1818       41      643 1
    1819     1493      383 1
    1820      571      583 1
    1821     1519     1651 1
    1822     1633      919 1
    1823     1483     1152 1
    1824      169      528 1
    1825     1336     1619 1
    1826      623      849 1
    1827     1706      292 1
    1828      494     1002 1
    1829     1539     1160 1
    1830     1539      439 1
    1831       76      415 1
    1832     1769     1113 1
    1833      231     1056 1
    1834      331      842 1
    1835      605      997 1
    1836     1733     1513 1
    1837     1721       56 1
    1838      577      735 1
    1839      651     1287 1
    1840     1348      484 1
    1841     1628      820 1
    1842      234      955 1
    1843     1473      935 1
    1844      481      826 1
    1845     1418     1618 1
    1846     1550      355 1
    1847      805     1081 1
    1848      766     1071 1
    1849      104     1167 1
    1850     1633     1172 1
    1851     1419      598 1
    1852     1761     1204 1
    1853      193     1042 1
    1854      503     1112 1
    1855      499      655 1
    1856     1678     1050 1
    1857      371      803 1
    1858     1312      421 1
    1859      403      851 1
    1860      133      152 1
    1861      294     1245 1
    1862      392      869 1
    1863      124      553 1
    1864     1668      276 1
    1865     1418     1062 1
    1866     1782     1341 1
    1867     1501      151 1
    1868     1350      909 1
    1869      390     1144 1
    1870     1729      858 1
    1871     1598      890 1
    1872     1373      880 1
    1873      641      698 1
    1874      462      886 1
    1875      213      977 1
    1876     1140     1242 1
    1877     1787     1243 1
    1878      374      649 1
    1879       34      869 1
    1880     1378     1370 1
    1881     1456      717 1
    1882      600     1283 1
    1883     1702     1379 1
    1884     1673     1157 1
    1885     1648      960 1
    1886      350      410 1
    1887      254     1013 1
    1888      671      997 1
    1889     1434     1147 1
    1890     1680     1155 1
    1891      257      463 1
    1892      128     1137 1
    1893     1320     1573 1
    1894     1532      853 1
    1895     1562      247 1
    1896     1522      825 1
    1897      632     1196 1
    1898      356      385 1
    1899      207     1266 1
    1900     1601     1224 1
    1901      631      806 1
    1902     1488     1681 1
    1903     1465      568 1
    1904      140      836 1
    1905     1588      634 1
    1906     1711      297 1
    1907        3      640 1
    1908       63      614 1
    1909       97     1172 1
    1910      875      960 1
    1911     1408      474 1
    1912     1707     1052 1
    1913     1750       30 1
    1914     1737      475 1
    1915      250      666 1
    1916     1067     1071 1
    1917     1587     1077 1
    1918     1515     1770 1
    1919      497      791 1
    1920     1301     1280 1
    1921     1358     1127 1
    1922     1751      948 1
    1923       94     1275 1
    1924      758      858 1
    1925     1427      531 1
    1926     1734      286 1
    1927     1502      409 1
    1928       52      446 1
    1929     1061     1262 1
    1930     1141     1149 1
    1931     1567     1344 1
    1932     1346      345 1
    1933     1358      290 1
    1934      811      881 1
    1935      265      337 1
    1936      416      994 1
    1937      600     1022 1
    1938      330     1173 1
    1939      740      809 1
    1940      693     1086 1
    1941     1612     1760 1
    1942       89     1099 1
    1943      277     1003 1
    1944     1373     1376 1
    1945     1056     1251 1
    1946     1595      607 1
    1947      483     1255 1
    1948     1536      694 1
    1949      535      986 1
    1950       67      475 1
    1951     1495      607 1
    1952     1616     1164 1
    1953     1664      129 1
    1954      670      779 1
    1955     1736      639 1
    1956      409      835 1
    1957      198      589 1
    1958      964     1287 1
    1959     1121     1190 1
    1960      134      895 1
    1961     1349     1577 1
    1962      231      622 1
    1963     1586     1283 1
    1964     1412      200 1
    1965     1632      539 1
    1966      851     1018 1
    1967      416      484 1
    1968      912     1126 1
    1969      572     1091 1
    1970     1422      304 1
    1971      552      567 1
    1972     1733     1144 1
    1973     1368      706 1
    1974      339     1105 1
    1975     1503      591 1
    1976      953     1170 1
    1977     1743      471 1
    1978      183      956 1
    1979      209      789 1
    1980      216      513 1
    1981     1720      396 1
    1982      674      938 1
    1983     1781     1052 1
    1984      300      716 1
    1985      639      943 1
    1986     1700     1778 1
    1987     1625      438 1
    1988      315     1011 1
    1989       75     1224 1
    1990     1583     1274 1
    1991     1368     1600 1
    1992      111      309 1
    1993      383      574 1
    1994     1530       19 1
    1995      140      337 1
    1996      156     1053 1
    1997      486     1248 1
    1998     1603      835 1
    1999     1317     1051 1
    2000     1500       96 1
    2001     1426      568 1
    2002      838     1045 1
    2003      530      731 1
    2004      660      864 1
    2005     1421      171 1
    2006      335     1014 1
    2007     1405     1212 1
    2008      346      611 1
    2009     1679      837 1
    2010     1320      533 1
    2011     1605      624 1
    2012      922     1275 1
    2013      223      588 1
    2014     1645      711 1
    2015     1718     1462 1
    2016     1363      611 1
    2017     1340      718 1
    2018      143      802 1
    2019     1496     1129 1
    2020     1673      431 1
    2021      160      510 1
    2022     1512       59 1
    2023      910      949 1
    2024     1609      367 1
    2025      302      500 1
    2026     1430      812 1
    2027      656     1053 1
    2028      357      628 1
    2029     1665      826 1
    2030     1707     1327 1
    2031     1527      805 1
    2032     1481      232 1
    2033      399     1012 1
    2034      441     1283 1
    2035      744      954 1
    2036      438      942 1
    2037     1652     1141 1
    2038     1688     1423 1
    2039     1318      151 1
    2040       97      379 1
    2041     1769      657 1
    2042      612     1103 1
    2043     1344      420 1
    2044     1692     1103 1
    2045      462     1095 1
    2046      426      923 1
    2047     1433      679 1
    2048     1625       53 1
    2049      495      762 1
    2050     1476      973 1
    2051     1627      181 1
    2052     1657      241 1
    2053     1328      688 1
    2054     1689      110 1
    2055     1031     1279 1
    2056     1765      946 1
    2057      541      789 1
    2058     1535     1474 1
    2059     1690     1452 1
    2060      252      682 1
    2061      277      397 1
    2062      104     1143 1
    2063      237     1143 1
    2064      743      822 1
    2065      459     1187 1
    2066      952     1223 1
    2067      119      577 1
    2068      550      657 1
    2069      191      741 1
    2070      223      351 1
    2071      733      758 1
    2072     1774      504 1
    2073      561     1262 1
    2074      741     1098 1
    2075     1786      624 1
    2076      219      532 1
    2077        4      589 1
    2078      292     1252 1
    2079      861      944 1
    2080     1681       33 1
    2081      215      333 1
    2082     1667      800 1
    2083     1775      996 1
    2084      470      869 1
    2085        5     1057 1
    2086     1308     1057 1
    2087      124      706 1
    2088      503      592 1
    2089     1718      230 1
    2090     1492      150 1
    2091      291     1198 1
    2092     1359      130 1
    2093     1582      857 1
    2094      592      701 1
    2095      229     1011 1
    2096     1499     1028 1
    2097      916     1012 1
    2098     1571      968 1
    2099     1706     1130 1
    2100      336      440 1
    2101     1554      770 1
    2102     1323      173 1
    2103     1514     1303 1
    2104     1621      946 1
    2105     1465      854 1
    2106     1525      695 1
    2107     1669      210 1
    2108     1314       26 1
    2109     1477     1400 1
    2110       80      930 1
    2111       32     1047 1
    2112     1539     1337 1
    2113     1558      613 1
    2114     1580      294 1
    2115       48     1162 1
    2116      541      811 1
    2117      789      872 1
    2118      606     1023 1
    2119      243      636 1
    2120      474     1289 1
    2121     1750      852 1
    2122      321      384 1
    2123      680     1278 1
    2124     1343      167 1
    2125      269     1085 1
    2126      271      282 1
    2127      352     1109 1
    2128      839     1216 1
    2129     1596      558 1
    2130      169     1180 1
    2131     1700     1211 1
    2132     1017     1203 1
    2133      748     1196 1
    2134     1698      314 1
    2135      313      552 1
    2136     1574     1174 1
    2137      673      975 1
    2138       68      113 1
    2139     1532     1411 1
    2140     1120     1158 1
    2141     1684      246 1
    2142      247      473 1
    2143        9      611 1
    2144      413      487 1
    2145      457      505 1
    2146      212     1009 1
    2147      322     1044 1
    2148      202      330 1
    2149      179     1234 1
    2150     1551      419 1
    2151     1775      597 1
    2152     1404      468 1
    2153     1457      637 1
    2154      615     1040 1
    2155      170      560 1
    2156     1598       64 1
    2157     1561      619 1
    2158       84      539 1
    2159      332      430 1
    2160     1326      806 1
    2161      445      785 1
    2162      168      279 1
    2163     1518     1212 1
    2164      412     1004 1
    2165       69      451 1
    2166      385     1215 1
@<TRIPOS>SUBSTRUCTURE
       1 RES             1 RESIDUE    0 **** ROOT      0
