@<TRIPOS>MOLECULE
RES
2105 2598 1 0 1
SMALL
NO_CHARGES
@<TRIPOS>CRYSIN
   50.0000    50.0000    20.0300    90.0000    90.0000    90.0000  1  1
@<TRIPOS>ATOM
       1 O           39.3280    24.2340     3.1580 O             1 RES     
       2 O            8.4580    48.5390     6.1960 O             1 RES     
       3 O            9.9370    34.3450     9.7080 O             1 RES     
       4 O           27.9310    20.9500     2.9650 O             1 RES     
       5 Si          34.0510    21.9090     6.4800 Si            1 RES     
       6 O           31.4160    17.1410     7.9150 O             1 RES     
       7 O            7.4230    25.4710     6.7820 O             1 RES     
       8 O           47.1120     3.1090     5.5400 O             1 RES     
       9 O           32.8980     7.8050     9.9470 O             1 RES     
      10 Si          38.7810    11.9610     4.5220 Si            1 RES     
      11 O           25.3700     1.5880    12.7280 O             1 RES     
      12 O           28.2200     7.4620    11.4690 O             1 RES     
      13 O           41.5420    22.2820     9.1930 O             1 RES     
      14 O           31.7550     1.9730    13.4760 O             1 RES     
      15 Si           1.2140    26.3900     3.6200 Si            1 RES     
      16 O           32.1660    42.1050     9.0280 O             1 RES     
      17 O           26.2930    46.3710     7.6460 O             1 RES     
      18 O           17.5360    25.3840     7.5700 O             1 RES     
      19 O           45.4190    33.1370    12.1080 O             1 RES     
      20 Si          37.4340     4.1390     8.1680 Si            1 RES     
      21 O           35.4360    32.8570     8.7280 O             1 RES     
      22 O           23.7070    24.5910     4.9950 O             1 RES     
      23 Si           7.6290    42.0460    14.5770 Si            1 RES     
      24 Si          18.9430    40.9130    13.6300 Si            1 RES     
      25 O            9.6650    31.9680     5.7910 O             1 RES     
      26 Si          45.4860    22.8860    10.2000 Si            1 RES     
      27 Si          19.9930    18.2280    12.3350 Si            1 RES     
      28 O           24.5250    30.7410     7.9630 O             1 RES     
      29 O           32.6640    41.9310    11.4990 O             1 RES     
      30 O            6.5590    27.3500     5.0100 O             1 RES     
      31 Si           8.9520    33.0600     4.9870 Si            1 RES     
      32 O           40.1130    25.9410     9.7650 O             1 RES     
      33 O           20.6210    37.5380     6.4480 O             1 RES     
      34 Si          24.6920    29.4830     6.9840 Si            1 RES     
      35 Si          19.3940    15.7420     5.6330 Si            1 RES     
      36 O           29.8760    11.7970     6.2890 O             1 RES     
      37 O           37.9360    30.6050     3.1040 O             1 RES     
      38 O           49.3000    43.1650     4.7740 O             1 RES     
      39 O           49.2410    15.4300     8.7790 O             1 RES     
      40 Si          16.0040    25.6960     7.5250 Si            1 RES     
      41 O           10.2360     3.4110     9.6970 O             1 RES     
      42 O           43.4210    28.2730     6.3950 O             1 RES     
      43 O            0.1870    40.6520     3.9740 O             1 RES     
      44 O           11.9330    36.8760     3.0060 O             1 RES     
      45 Si          43.8870     0.3740     7.3530 Si            1 RES     
      46 O           23.3580    12.3080    11.7210 O             1 RES     
      47 OS          46.3330    21.9160    14.2350 OS            1 RES     
      48 Si          25.3870    41.5760    12.4880 Si            1 RES     
      49 O           46.0860    21.2950     7.0170 O             1 RES     
      50 O           21.7340     6.6160     4.3500 O             1 RES     
      51 O           23.6280    38.4180    11.4120 O             1 RES     
      52 O           48.4240    30.3200     6.4430 O             1 RES     
      53 O           14.8410    23.7240    11.1040 O             1 RES     
      54 O           13.8720     7.7270     8.0010 O             1 RES     
      55 O           42.9320    35.6550     5.0210 O             1 RES     
      56 Si          14.9580    22.2990    11.7660 Si            1 RES     
      57 Si           1.3660    23.9370     5.4410 Si            1 RES     
      58 O           17.8410    37.7820    13.0870 O             1 RES     
      59 O            2.1070    45.4170     9.4240 O             1 RES     
      60 Si          23.7100    28.9220    12.3920 Si            1 RES     
      61 O           38.9530    35.4330    11.0830 O             1 RES     
      62 O           18.9750    37.1960     8.6150 O             1 RES     
      63 O           20.4090    49.8920     4.6600 O             1 RES     
      64 O           45.0010    36.9310    13.7540 O             1 RES     
      65 O           46.3590    38.6730     9.4100 O             1 RES     
      66 Si          30.3630    42.9570     3.6210 Si            1 RES     
      67 O           22.5390     0.6400     1.6870 O             1 RES     
      68 Si          47.8950    43.8810     5.0840 Si            1 RES     
      69 O           21.7380    45.4450     8.6830 O             1 RES     
      70 O           29.7260    34.7920    11.3840 O             1 RES     
      71 O           28.0750     5.0820    10.5820 O             1 RES     
      72 O           21.1570    46.3070    14.3630 O             1 RES     
      73 Si          24.9300    47.1050     7.6980 Si            1 RES     
      74 O           49.2420    47.3080     4.1190 O             1 RES     
      75 OS           9.9970    49.0200    15.3030 OS            1 RES     
      76 O           19.3630    42.3460    13.2480 O             1 RES     
      77 O           42.6700    39.8890    13.3630 O             1 RES     
      78 O           30.4550     7.1310    10.0400 O             1 RES     
      79 Si          23.1700     7.2460     4.4180 Si            1 RES     
      80 O           22.6910    40.0080     9.8390 O             1 RES     
      81 O            9.2430    34.4260     5.6130 O             1 RES     
      82 Si          35.9510    45.0840     7.4200 Si            1 RES     
      83 O           13.0020    14.6690    10.0680 O             1 RES     
      84 Si          22.3030    18.2180     3.4300 Si            1 RES     
      85 O           38.6920    44.6600     9.9650 O             1 RES     
      86 Si           5.3750    36.6310     5.4460 Si            1 RES     
      87 O            8.7770    41.0120    14.1070 O             1 RES     
      88 O           31.6610     6.9240     7.6810 O             1 RES     
      89 O            2.1040    44.4950    11.9170 O             1 RES     
      90 O           10.2660     3.2190    12.0870 O             1 RES     
      91 O           33.2710    37.6820     4.3090 O             1 RES     
      92 O            2.5230    37.1640    12.4500 O             1 RES     
      93 O           34.7990    41.8550    10.2240 O             1 RES     
      94 Si          40.6200    48.9560    13.0040 Si            1 RES     
      95 Si          20.4020    45.1770     4.5950 Si            1 RES     
      96 Si          30.0820    17.9670     7.9450 Si            1 RES     
      97 O           30.5780    43.3520     7.2540 O             1 RES     
      98 O           19.3900    32.4830    10.8440 O             1 RES     
      99 O           38.7970    47.0110    10.9690 O             1 RES     
     100 Si          39.4990    19.3740     8.7080 Si            1 RES     
     101 O           42.9490    38.5760     2.4350 O             1 RES     
     102 Si           3.8240    29.5800     7.9930 Si            1 RES     
     103 O           26.1210     8.9700    12.5670 O             1 RES     
     104 O           37.3440     8.4030     7.9400 O             1 RES     
     105 O           15.1020    37.0500     8.0510 O             1 RES     
     106 O            9.6790     3.5510     2.8980 O             1 RES     
     107 O           31.5790    43.9430     3.5960 O             1 RES     
     108 Si          35.8900    12.3490     5.6510 Si            1 RES     
     109 O            4.2640     9.0260     4.7800 O             1 RES     
     110 O           44.0270    15.3980     4.9560 O             1 RES     
     111 O           38.3090    33.0360    11.9640 O             1 RES     
     112 Si          32.8510    29.5180    12.2650 Si            1 RES     
     113 O           22.9350    41.4540     7.9210 O             1 RES     
     114 O           30.0370    49.7050     3.3810 O             1 RES     
     115 Si           3.5000    38.7530     4.4320 Si            1 RES     
     116 O           38.2010    10.6540     7.5920 O             1 RES     
     117 O            9.7210    44.1600     8.4230 O             1 RES     
     118 O           38.4650    25.9060     8.1340 O             1 RES     
     119 O            6.0940    16.2190     8.6880 O             1 RES     
     120 Si          35.5490    30.0700    13.5290 Si            1 RES     
     121 OS          19.4890    24.5230    14.7060 OS            1 RES     
     122 O           41.3560    36.3370    10.0850 O             1 RES     
     123 Si          15.1630    35.7140     7.3010 Si            1 RES     
     124 O            7.6490    16.0520    13.1470 O             1 RES     
     125 O           31.1850     7.8320     5.0870 O             1 RES     
     126 O           24.1550    46.1000     8.5750 O             1 RES     
     127 O            8.2810     6.0230    12.1260 O             1 RES     
     128 Si           5.4560     7.3650    14.2420 Si            1 RES     
     129 O           45.3310    24.4320     9.8760 O             1 RES     
     130 Si          25.6960    37.4590     8.8510 Si            1 RES     
     131 O            2.2070    13.1450    12.8520 O             1 RES     
     132 O           49.6470    15.8970     1.3740 O             1 RES     
     133 Si          15.9380    32.7240     8.1010 Si            1 RES     
     134 Si           7.5200    44.1720    12.3700 Si            1 RES     
     135 O           30.4440    23.0700     5.2210 O             1 RES     
     136 O           46.7050    47.7370     5.0130 O             1 RES     
     137 OS          13.2410    47.3600    14.7350 OS            1 RES     
     138 O           11.4490     7.4630     8.7760 O             1 RES     
     139 Si          23.7950     1.6760     6.8390 Si            1 RES     
     140 Si          29.4070    14.1440    12.7720 Si            1 RES     
     141 O            2.8600    30.0720     9.2260 O             1 RES     
     142 OS          39.9800    19.6340    14.9860 OS            1 RES     
     143 Si          21.9800    30.9280     3.3940 Si            1 RES     
     144 O           24.3500    18.9630     7.6670 O             1 RES     
     145 O            8.7010    16.3040     2.2870 O             1 RES     
     146 Si          22.5320    25.0840     4.1390 Si            1 RES     
     147 O            3.2820     9.1310    10.0050 O             1 RES     
     148 Si          18.5560    33.6670    11.4620 Si            1 RES     
     149 O           17.6690    29.6720     7.1160 O             1 RES     
     150 Si          20.2150     6.4960     4.7090 Si            1 RES     
     151 Si          26.0590    40.8180     5.8490 Si            1 RES     
     152 O           28.9650    38.7850    10.2090 O             1 RES     
     153 O           40.1500    16.6990     2.3940 O             1 RES     
     154 Si          49.4280     0.5340     8.6050 Si            1 RES     
     155 OS          30.9120     5.7890    15.4930 OS            1 RES     
     156 O            4.7720    21.7590     6.4550 O             1 RES     
     157 O           24.2530    33.2980     7.8670 O             1 RES     
     158 O           26.5570    43.0640    13.5040 O             1 RES     
     159 Si          10.7020    30.7490     6.1000 Si            1 RES     
     160 O           42.6700     5.6730     5.2900 O             1 RES     
     161 Si          14.2700    49.9640    11.6860 Si            1 RES     
     162 O            6.6100    21.1300    10.0300 O             1 RES     
     163 O           49.4510    11.8250    10.8060 O             1 RES     
     164 O           41.1260    13.8420     9.8870 O             1 RES     
     165 O           36.5990    20.8150    13.3960 O             1 RES     
     166 O            5.7020     7.1450    15.7140 O             1 RES     
     167 O           45.6810    15.0260     7.0230 O             1 RES     
     168 O           46.7460    26.3010     8.8480 O             1 RES     
     169 O           27.8520    30.1570     5.1630 O             1 RES     
     170 O           14.0080    16.7380     5.3380 O             1 RES     
     171 O           27.0560    41.8310     1.9940 O             1 RES     
     172 Si          13.3490    24.6240     3.2190 Si            1 RES     
     173 O           25.9020    34.8710     4.4290 O             1 RES     
     174 O           20.1230     4.8830     4.5910 O             1 RES     
     175 O           34.1470    15.1210    11.3000 O             1 RES     
     176 Si           1.3730    22.1510     2.9220 Si            1 RES     
     177 O           21.3860     9.3540    14.2790 O             1 RES     
     178 O           49.7900    25.9860     3.1710 O             1 RES     
     179 O           32.2150    27.3290     8.7490 O             1 RES     
     180 O           42.4190    13.5680     5.7240 O             1 RES     
     181 O           37.2140     5.2770     9.2580 O             1 RES     
     182 O           40.9980    23.4960     1.5910 O             1 RES     
     183 O            0.6460    27.9250    13.3760 O             1 RES     
     184 Si           0.8110    19.1590     9.6580 Si            1 RES     
     185 O           30.5330    18.1760     4.0030 O             1 RES     
     186 O           41.9850    33.4010     8.8860 O             1 RES     
     187 O            6.9590    38.8170    12.1150 O             1 RES     
     188 O           23.5630    28.8290     6.0310 O             1 RES     
     189 Si          36.8960     6.1620    10.4730 Si            1 RES     
     190 O           30.9060    42.8970    12.8760 O             1 RES     
     191 Si          36.6590    19.1670    13.0730 Si            1 RES     
     192 O           22.3450    33.7720    10.4280 O             1 RES     
     193 Si          38.7720    49.4470     3.8340 Si            1 RES     
     194 Si          20.6320    28.6790    11.6590 Si            1 RES     
     195 O           29.1060     9.9070     8.0490 O             1 RES     
     196 O            4.3300    16.1090     6.8260 O             1 RES     
     197 Si          46.1970     8.4660     8.6420 Si            1 RES     
     198 O           31.4770    20.9200    10.3250 O             1 RES     
     199 O           23.6740    13.7090     7.1970 O             1 RES     
     200 O           25.7850    16.0530    11.2930 O             1 RES     
     201 Si          25.0720     2.0650    11.2810 Si            1 RES     
     202 O            6.5130    12.3630    10.0980 O             1 RES     
     203 O            9.7480    22.3050    14.0480 O             1 RES     
     204 O           31.2430    26.1310     6.4910 O             1 RES     
     205 O           29.5560    43.4330     4.9100 O             1 RES     
     206 O            5.5290    29.6980     4.5780 O             1 RES     
     207 O           41.2690     0.2290    13.6010 O             1 RES     
     208 Si          12.1290    29.9390     9.9840 Si            1 RES     
     209 OS          37.6540    22.6800    14.4990 OS            1 RES     
     210 O           19.3970     5.5340    14.5810 O             1 RES     
     211 Si          42.9810    42.5610    10.5600 Si            1 RES     
     212 O            0.0220    14.5270     4.1100 O             1 RES     
     213 O           27.5270     6.1070     3.8020 O             1 RES     
     214 O           12.7250     3.7090    12.4850 O             1 RES     
     215 Si           9.4180     2.8310    10.8570 Si            1 RES     
     216 O           31.6600    36.1520    10.5500 O             1 RES     
     217 Si          18.5290    31.0570     7.4200 Si            1 RES     
     218 O           22.9530    45.1110    10.9490 O             1 RES     
     219 O           47.5310    28.1790     7.5710 O             1 RES     
     220 Si          32.4110    11.4260    14.4260 Si            1 RES     
     221 O           22.0970     2.9560     3.5790 O             1 RES     
     222 O           23.9750    47.1680     6.4300 O             1 RES     
     223 Si          35.6350     7.7970     5.0950 Si            1 RES     
     224 OS          28.6390    36.2550    14.3820 OS            1 RES     
     225 Si          15.2560    25.1420    10.4270 Si            1 RES     
     226 O           18.6580    35.0890    10.6360 O             1 RES     
     227 O           20.2660    37.5690    13.8000 O             1 RES     
     228 O           29.7200    18.0810    12.3670 O             1 RES     
     229 O           26.0000    19.8770     4.2940 O             1 RES     
     230 O           41.0400     2.2550     8.1180 O             1 RES     
     231 Si          26.5050     9.2230     5.5330 Si            1 RES     
     232 O           36.9120    40.4130    10.7990 O             1 RES     
     233 O           20.7340    15.2520     4.9050 O             1 RES     
     234 O           19.4960    18.3400    10.8120 O             1 RES     
     235 O           22.9330     2.9620     7.0930 O             1 RES     
     236 O           46.3160    48.9330    13.3120 O             1 RES     
     237 O           25.5590    23.5770     6.4960 O             1 RES     
     238 O           34.9440    48.6380    11.0810 O             1 RES     
     239 Si          25.5740    19.7440    11.9030 Si            1 RES     
     240 O           48.8640    43.1430    13.3700 O             1 RES     
     241 Si          39.8650    13.0490    13.4740 Si            1 RES     
     242 O            0.6750    30.5180    10.5840 O             1 RES     
     243 OS          19.3050    40.6320    15.2050 OS            1 RES     
     244 Si          19.9420     6.1710     7.7720 Si            1 RES     
     245 Si          23.1990    12.0790     3.8050 Si            1 RES     
     246 O           30.8380     5.4450     5.9680 O             1 RES     
     247 O           45.9100     7.5290     7.3860 O             1 RES     
     248 Si           3.6840    12.8230    12.3480 Si            1 RES     
     249 O           18.8100    44.6700    12.2700 O             1 RES     
     250 Si          38.0060    11.3040     9.0220 Si            1 RES     
     251 O           20.9740    36.1480     4.3800 O             1 RES     
     252 Si          21.0440     5.2630    14.6930 Si            1 RES     
     253 O           33.5230    45.4890     2.9160 O             1 RES     
     254 O           28.3750     6.0870    14.6900 O             1 RES     
     255 O           23.1790    31.3580     2.5010 O             1 RES     
     256 Si           9.2410    45.5480     3.3790 Si            1 RES     
     257 Si          34.3650     5.5360    12.3320 Si            1 RES     
     258 Si          39.6160    25.8090     3.1450 Si            1 RES     
     259 O           28.8550    16.9830     8.2740 O             1 RES     
     260 Si          10.8730    25.4460     9.4090 Si            1 RES     
     261 OS          33.3940    45.2420    13.7960 OS            1 RES     
     262 Si          45.8650    31.8970     2.7980 Si            1 RES     
     263 O           43.3990     5.4610    10.9030 O             1 RES     
     264 Si          48.1860     9.2440    12.9390 Si            1 RES     
     265 O           45.3100    32.5620     6.9560 O             1 RES     
     266 O           21.8170    45.9040     5.1190 O             1 RES     
     267 O           42.0710    47.7170     9.4400 O             1 RES     
     268 Si          35.4420    32.0520     7.3890 Si            1 RES     
     269 O           45.1310    14.1860     9.3770 O             1 RES     
     270 O           13.7230     1.3210    12.2550 O             1 RES     
     271 O           28.4180    12.2310     8.3410 O             1 RES     
     272 O           48.1150     3.6560     3.2300 O             1 RES     
     273 O           24.3630    21.2010     2.9820 O             1 RES     
     274 Si           0.4750    39.2730     4.6870 Si            1 RES     
     275 Si          49.8290    17.2240    12.6160 Si            1 RES     
     276 O           11.8830    42.9360     5.5030 O             1 RES     
     277 O           48.1000    18.5900     5.2710 O             1 RES     
     278 OS          36.9350    13.5800    15.2140 OS            1 RES     
     279 Si          13.5760    45.1310     8.3190 Si            1 RES     
     280 O            7.9420    29.6150     8.5510 O             1 RES     
     281 O           19.4490    16.2870     9.2650 O             1 RES     
     282 Si          21.5420    36.5720    14.1650 Si            1 RES     
     283 O           20.8560    44.1370    13.7370 O             1 RES     
     284 O           21.8720    33.0660     6.7000 O             1 RES     
     285 Si          28.1680    32.5160     7.8900 Si            1 RES     
     286 O            9.3260    14.7530     6.8240 O             1 RES     
     287 Si          33.4080    23.7200     8.8770 Si            1 RES     
     288 O           22.0920    20.6210     7.5910 O             1 RES     
     289 O            3.4620     6.4040    10.5250 O             1 RES     
     290 Si          37.3120    24.5400    11.4470 Si            1 RES     
     291 O           26.2140    25.8960    11.8030 O             1 RES     
     292 Si          39.0690    17.2800     3.3630 Si            1 RES     
     293 O           38.6180    34.2620     4.5350 O             1 RES     
     294 Si          37.6040    34.2130     3.3530 Si            1 RES     
     295 O           17.1970    29.7180    13.4790 O             1 RES     
     296 O            0.7970    42.5890     7.7990 O             1 RES     
     297 O           22.2110    13.2820     3.8790 O             1 RES     
     298 O           40.1380    25.9320    14.3240 O             1 RES     
     299 O            3.3010    42.0190     7.2270 O             1 RES     
     300 O           42.6960    40.5310     3.8590 O             1 RES     
     301 Si          17.0000     5.1450     8.0970 Si            1 RES     
     302 O           47.1890    25.8760     6.4000 O             1 RES     
     303 O           42.6210    18.3830    10.7470 O             1 RES     
     304 O            8.0760    15.1190     4.6190 O             1 RES     
     305 Si          45.0950    38.4250    10.3500 Si            1 RES     
     306 O           45.8150     0.0320     1.4580 O             1 RES     
     307 Si          12.9980    31.8610     7.7030 Si            1 RES     
     308 O           18.4430    18.7220     8.4660 O             1 RES     
     309 O           24.4370    16.7460     6.5860 O             1 RES     
     310 OS          49.4460    48.7190    14.6740 OS            1 RES     
     311 Si          14.9540    12.9100     6.0530 Si            1 RES     
     312 O           14.9650    18.7910     9.9840 O             1 RES     
     313 O           37.9870    44.9430    12.3720 O             1 RES     
     314 Si          20.9490    47.8360    14.6340 Si            1 RES     
     315 Si          24.7280    26.1950    11.4530 Si            1 RES     
     316 O           47.3630    32.9210     8.3330 O             1 RES     
     317 O           43.0670     2.0600    14.2180 O             1 RES     
     318 O           32.0960    16.7640    11.4900 O             1 RES     
     319 O           34.8860    47.1780    12.9650 O             1 RES     
     320 O           12.7500    15.3170     3.5650 O             1 RES     
     321 O           35.1600    41.7720     5.1760 O             1 RES     
     322 O           46.3020    43.3040     9.1230 O             1 RES     
     323 O           21.4630    14.5980     8.6160 O             1 RES     
     324 O           38.8250    47.9060     3.5560 O             1 RES     
     325 OS          31.5970    22.2610    15.3020 OS            1 RES     
     326 O           33.4650     1.9990     3.7860 O             1 RES     
     327 O           27.3030    14.6550     8.4230 O             1 RES     
     328 Si          47.7840    30.4230    13.0160 Si            1 RES     
     329 Si          28.0700    37.3300    13.3640 Si            1 RES     
     330 O           24.3010    27.5890    11.8080 O             1 RES     
     331 O           29.2100    28.5980    14.2210 O             1 RES     
     332 O           18.4060    47.3430    11.6440 O             1 RES     
     333 O            6.4100    19.6400     5.3440 O             1 RES     
     334 O           19.7470    28.5850    12.9640 O             1 RES     
     335 O            9.7490    47.1610    13.2240 O             1 RES     
     336 Si          48.5780    19.7920     6.0330 Si            1 RES     
     337 Si          13.2120     6.2720     4.4060 Si            1 RES     
     338 Si          38.8670    43.7710     3.9090 Si            1 RES     
     339 O           16.1730    35.9180     6.1790 O             1 RES     
     340 Si          46.9800     2.9410     3.9820 Si            1 RES     
     341 O           16.4210    48.9450     5.2640 O             1 RES     
     342 OS          26.6940    44.9590    15.1340 OS            1 RES     
     343 O           49.7980    38.4060    12.4830 O             1 RES     
     344 Si          45.7850    33.9520    13.4140 Si            1 RES     
     345 Si          28.4320     0.9860     9.0180 Si            1 RES     
     346 OS          13.7120    44.0760    14.1260 OS            1 RES     
     347 OS          18.4220    28.3930    15.1580 OS            1 RES     
     348 O            3.7910    19.2340    12.2220 O             1 RES     
     349 Si          37.3810    14.3720     9.2660 Si            1 RES     
     350 O           39.6090    17.1140     4.7570 O             1 RES     
     351 O           18.9850    23.2030     4.9360 O             1 RES     
     352 O           33.3830    29.5890     8.6530 O             1 RES     
     353 Si           6.5040    34.3540     3.6440 Si            1 RES     
     354 OS          27.0950    38.4120    14.2150 OS            1 RES     
     355 O           10.6390    41.7210    12.3230 O             1 RES     
     356 Si          21.8010    23.4750    10.1490 Si            1 RES     
     357 O           32.1880     2.9370    11.0530 O             1 RES     
     358 O           48.2850    37.1040     8.2830 O             1 RES     
     359 O           41.0400     2.3510    12.7430 O             1 RES     
     360 O           21.6560    15.2860     2.4880 O             1 RES     
     361 Si          23.6110    42.4730     6.8000 Si            1 RES     
     362 Si          39.1900    24.7630     8.9630 Si            1 RES     
     363 O           23.5860    47.4960    12.0860 O             1 RES     
     364 O           35.6550    44.6830    12.9390 O             1 RES     
     365 O           38.8090    10.5150     5.0240 O             1 RES     
     366 Si          24.0620    35.1490    14.2360 Si            1 RES     
     367 Si           7.5450    17.4300    12.2700 Si            1 RES     
     368 O           11.9280    10.0130     4.3980 O             1 RES     
     369 OS          29.4870    24.8820    15.0800 OS            1 RES     
     370 O           47.4460    12.9720    12.0550 O             1 RES     
     371 O           16.4350     1.3450     6.4240 O             1 RES     
     372 OS          15.1070    41.8100    14.3490 OS            1 RES     
     373 Si          10.3130    11.8920    10.4020 Si            1 RES     
     374 O           11.2070    32.3640    13.4470 O             1 RES     
     375 O           23.7810    46.8420     3.9060 O             1 RES     
     376 O           32.3080    40.5490    13.5250 O             1 RES     
     377 Si          14.6130    39.8490    10.8620 Si            1 RES     
     378 O           23.8970    25.3580    12.4800 O             1 RES     
     379 Si           9.0190     4.2510     4.0900 Si            1 RES     
     380 O           25.1120    14.6520     5.4390 O             1 RES     
     381 Si          44.0140    36.7140     7.7550 Si            1 RES     
     382 O           48.1550    10.7840    12.7930 O             1 RES     
     383 O           14.5800    10.1050    13.9600 O             1 RES     
     384 O           30.2540    15.4520    12.2440 O             1 RES     
     385 O           15.1430    39.4530     9.4470 O             1 RES     
     386 Si          26.1430     3.1790     5.5820 Si            1 RES     
     387 O            0.4530     3.1480     6.2690 O             1 RES     
     388 O           46.8350    49.3910    10.9860 O             1 RES     
     389 O            4.0590    36.5990     8.4880 O             1 RES     
     390 Si          21.9700    14.8470     4.0010 Si            1 RES     
     391 Si           5.4830    21.8870    10.9520 Si            1 RES     
     392 O           12.9610    16.0130    12.0790 O             1 RES     
     393 Si          18.5110    45.7810    11.1700 Si            1 RES     
     394 O           26.1120     6.5300    13.1560 O             1 RES     
     395 O           28.9550    11.6580     3.8450 O             1 RES     
     396 O           16.8570     4.4800     9.5660 O             1 RES     
     397 O           12.2070    31.3180     6.4880 O             1 RES     
     398 Si           3.6610    47.9890     3.2660 Si            1 RES     
     399 O            2.3810    38.3960     9.2630 O             1 RES     
     400 OS           2.3710    15.6750    15.1730 OS            1 RES     
     401 O           16.4770    43.0330     5.4360 O             1 RES     
     402 O            8.4010    37.8400     9.9930 O             1 RES     
     403 Si          35.2360    26.0960     9.8200 Si            1 RES     
     404 O           41.6370    48.2940    12.0470 O             1 RES     
     405 O           28.3920    45.5220     9.3080 O             1 RES     
     406 Si           8.7650     9.9060     8.6400 Si            1 RES     
     407 Si          31.1860    40.2060     4.6190 Si            1 RES     
     408 O           33.9620     9.7730    11.3540 O             1 RES     
     409 Si          29.9290    38.9810    11.4220 Si            1 RES     
     410 OS          31.0820    45.2290    13.9070 OS            1 RES     
     411 O           12.6410    40.5630    10.4970 O             1 RES     
     412 O           46.4470    45.4640     8.5700 O             1 RES     
     413 O            3.8460    49.6770    12.4230 O             1 RES     
     414 O           11.9350    26.3070    10.1220 O             1 RES     
     415 OS           1.5340    34.4590    14.7830 OS            1 RES     
     416 O           34.7310    37.0780     7.2970 O             1 RES     
     417 O            9.9940    32.7270     3.7510 O             1 RES     
     418 OS          45.7050    12.9940    13.9360 OS            1 RES     
     419 Si          18.4620    19.7870     7.3990 Si            1 RES     
     420 O           11.2240    35.5340     6.4810 O             1 RES     
     421 O           43.9110    10.6470     6.2750 O             1 RES     
     422 O           45.5200    36.9650     7.4450 O             1 RES     
     423 O           42.3600    47.1630     6.9220 O             1 RES     
     424 O           21.7830    13.9840    12.3470 O             1 RES     
     425 Si           4.6720    42.4670    14.7490 Si            1 RES     
     426 O           44.6130    34.5780    14.3020 O             1 RES     
     427 Si          14.1290    22.9800    14.7380 Si            1 RES     
     428 Si          38.2540    43.6100     8.9210 Si            1 RES     
     429 O           17.5590    27.3140    12.9220 O             1 RES     
     430 O            3.3950    11.3600    11.7150 O             1 RES     
     431 Si           6.1610     4.5190     2.9570 Si            1 RES     
     432 Si          35.9990     4.7990     5.4630 Si            1 RES     
     433 O           31.9370    24.6540    15.5530 O             1 RES     
     434 O           40.4460     8.8940    11.2490 O             1 RES     
     435 Si          36.3780     8.7640     9.1110 Si            1 RES     
     436 Si           1.8180    27.6390    12.3530 Si            1 RES     
     437 O           47.8010    37.1470    12.8070 O             1 RES     
     438 O            6.0320    28.5880    14.6560 O             1 RES     
     439 O           11.1920    45.1340    13.1630 O             1 RES     
     440 O           48.1120    47.4380    10.4120 O             1 RES     
     441 O           39.5130    20.8610     8.2070 O             1 RES     
     442 O            7.0610     3.7190    13.2660 O             1 RES     
     443 O           26.4280    34.1630    11.4740 O             1 RES     
     444 Si          33.3770     3.5300     3.4640 Si            1 RES     
     445 O           16.2090    28.5900     2.5190 O             1 RES     
     446 Si          47.5000    16.6790    14.5240 Si            1 RES     
     447 O           36.1180    48.2970     8.6890 O             1 RES     
     448 O           46.7490    17.9500     3.0500 O             1 RES     
     449 O           41.6860    42.9810     6.6740 O             1 RES     
     450 O           37.4760    12.5040     5.3120 O             1 RES     
     451 Si          24.7900    13.2300     6.2040 Si            1 RES     
     452 O           38.1530     4.6200    13.3710 O             1 RES     
     453 O            9.6770    32.6350    11.3050 O             1 RES     
     454 Si          33.9690    22.8690     3.4780 Si            1 RES     
     455 O           43.9820    37.9620     9.3120 O             1 RES     
     456 Si          39.8800    10.0190    14.4640 Si            1 RES     
     457 Si          12.2740    34.9140     7.4100 Si            1 RES     
     458 OS          48.1120    31.3340    14.2630 OS            1 RES     
     459 O           25.0010    18.4920    11.1670 O             1 RES     
     460 O            2.7600    24.2130    10.4020 O             1 RES     
     461 O           42.9580    26.1660    11.8200 O             1 RES     
     462 O           45.1440    14.4450    11.7480 O             1 RES     
     463 Si          40.0110    39.8830     8.6920 Si            1 RES     
     464 O           30.9400    26.7240    14.3070 O             1 RES     
     465 O            4.8870    30.6080    12.7110 O             1 RES     
     466 Si          29.8400     5.9120    14.2460 Si            1 RES     
     467 O           36.7400    29.8300     5.2550 O             1 RES     
     468 Si          29.9620     2.8120    14.3510 Si            1 RES     
     469 Si          16.6150    44.7830     8.8650 Si            1 RES     
     470 O           14.1100    11.8590     9.6930 O             1 RES     
     471 O            2.0850    44.1560     6.4310 O             1 RES     
     472 O           39.2760    49.2800    12.1610 O             1 RES     
     473 Si          39.0470    45.4520    11.2560 Si            1 RES     
     474 Si          46.1120    42.6170    10.5030 Si            1 RES     
     475 Si          15.9470     2.3680     7.5480 Si            1 RES     
     476 Si          12.7670    44.5550    12.9780 Si            1 RES     
     477 O            9.2800    23.5000     7.5290 O             1 RES     
     478 O           40.7000    34.4120    12.2590 O             1 RES     
     479 O           37.3970    49.2820    10.3440 O             1 RES     
     480 O           27.2990     9.9210     4.3170 O             1 RES     
     481 O           38.9710    38.8380    14.4190 O             1 RES     
     482 O           47.5000    17.2100     9.6140 O             1 RES     
     483 O           10.7770    40.0520     8.7900 O             1 RES     
     484 OS          21.3040     5.7590    16.2490 OS            1 RES     
     485 O           17.1220    19.9280    13.5530 O             1 RES     
     486 Si          24.9320    24.8970     5.9010 Si            1 RES     
     487 Si          46.2280    36.8130    12.7060 Si            1 RES     
     488 OS          17.5710     7.1020    13.6460 OS            1 RES     
     489 OS           4.0240    35.2560    14.7380 OS            1 RES     
     490 O            3.9580    31.7320     3.9260 O             1 RES     
     491 O           30.0340    48.1820     5.4990 O             1 RES     
     492 Si          13.4320    27.8980    13.9180 Si            1 RES     
     493 Si           2.3960     0.3410    12.1610 Si            1 RES     
     494 Si           1.3740    24.8670    10.7920 Si            1 RES     
     495 O           32.8560    14.0160     5.4360 O             1 RES     
     496 Si          10.6450    14.5730    14.5960 Si            1 RES     
     497 O            5.0360    32.8140    11.2680 O             1 RES     
     498 O            4.3950     1.0660     5.6080 O             1 RES     
     499 Si          11.4700    14.6680     9.6650 Si            1 RES     
     500 O           45.4260    12.4360     7.7160 O             1 RES     
     501 Si          39.5160    33.9090    11.3150 Si            1 RES     
     502 O           42.7260    45.9040    11.9400 O             1 RES     
     503 O           21.7830     5.7500    13.3060 O             1 RES     
     504 O            3.4140    40.7410     9.3500 O             1 RES     
     505 O           34.3490    32.3610     3.7950 O             1 RES     
     506 O            4.0670    45.7170    13.0380 O             1 RES     
     507 O           16.5320    25.6030    11.2150 O             1 RES     
     508 O            8.3430    40.2150     9.8420 O             1 RES     
     509 O            4.0360    25.3720     8.7120 O             1 RES     
     510 O           30.6800    45.8030     9.3590 O             1 RES     
     511 O           10.0900    10.7120     6.1550 O             1 RES     
     512 O           19.1940    17.1920     5.2050 O             1 RES     
     513 O           37.1160    48.2080    12.3700 O             1 RES     
     514 OS          21.3010    24.0450    16.2710 OS            1 RES     
     515 Si          11.3670    16.3290    12.1810 Si            1 RES     
     516 O           21.0180    22.6280    14.1260 O             1 RES     
     517 O            3.1960    13.4610     3.7560 O             1 RES     
     518 O            4.0060    30.3250     6.5690 O             1 RES     
     519 O           39.3020     0.3220     2.5230 O             1 RES     
     520 Si          39.5480    34.3190     5.9030 Si            1 RES     
     521 Si          19.5940    18.6870     4.7920 Si            1 RES     
     522 O           15.5400    11.8900    12.5810 O             1 RES     
     523 Si           3.2760    22.0430     6.8940 Si            1 RES     
     524 O            4.7160    44.8320     2.2930 O             1 RES     
     525 Si          16.4430     3.1290    10.4140 Si            1 RES     
     526 O           34.7450    20.4650     6.8190 O             1 RES     
     527 O           42.7410    49.4860     7.9210 O             1 RES     
     528 O            9.6600    25.8890     8.2980 O             1 RES     
     529 Si          14.1900    40.4600     5.9330 Si            1 RES     
     530 O            2.1890     7.9920     5.7940 O             1 RES     
     531 O           16.4940    21.9160    12.0070 O             1 RES     
     532 O            8.7360    23.7110    12.1360 O             1 RES     
     533 OS          13.5230    21.9240    15.8210 OS            1 RES     
     534 O            9.6740     3.0890     7.3500 O             1 RES     
     535 Si          45.4850     2.3080     9.1260 Si            1 RES     
     536 O           34.5530     1.7420     7.1130 O             1 RES     
     537 Si          47.6950    46.8240     4.1620 Si            1 RES     
     538 O           42.5580    35.6650    13.9000 O             1 RES     
     539 O            9.0940    31.8780     9.0570 O             1 RES     
     540 O           32.8540    11.6640    10.2560 O             1 RES     
     541 O           39.9370    12.6720     5.1830 O             1 RES     
     542 O           42.7870     7.5880     3.9020 O             1 RES     
     543 OS          41.5110    44.6970    13.8950 OS            1 RES     
     544 O           27.3630    49.9370    13.8480 O             1 RES     
     545 Si           3.5110    26.4870     7.6910 Si            1 RES     
     546 O           24.8100    40.6180     2.1530 O             1 RES     
     547 Si          33.1190    31.9260    14.0560 Si            1 RES     
     548 OS          28.0830    19.4000    14.1250 OS            1 RES     
     549 Si          45.3360    48.4560     5.2530 Si            1 RES     
     550 O           15.0890    16.2570    10.7830 O             1 RES     
     551 O            1.7470    25.2300     4.6450 O             1 RES     
     552 O           20.2430    49.6870    11.9420 O             1 RES     
     553 Si           1.9550    42.6290     6.7790 Si            1 RES     
     554 Si          21.5380     3.5220     7.4470 Si            1 RES     
     555 O           17.2980    45.0130    10.2930 O             1 RES     
     556 O           14.1450    39.2150     6.8920 O             1 RES     
     557 O           10.4990    19.3050     7.6740 O             1 RES     
     558 Si          14.9070     7.2060     6.9330 Si            1 RES     
     559 OS          35.9940    28.8700    14.4490 OS            1 RES     
     560 Si          28.6810    25.7310     9.3460 Si            1 RES     
     561 O           35.3300    30.3750     2.9760 O             1 RES     
     562 Si           8.6830    43.2050     7.6990 Si            1 RES     
     563 O           14.0870    29.7210     3.3030 O             1 RES     
     564 O           19.1870    21.2940    12.9720 O             1 RES     
     565 O           33.0820    22.8120    10.2330 O             1 RES     
     566 Si           9.8810    40.5260    12.9850 Si            1 RES     
     567 O           47.5190    36.2220     3.8790 O             1 RES     
     568 Si          28.5250     6.5820    10.1990 Si            1 RES     
     569 O           10.7470    36.0950    11.4710 O             1 RES     
     570 Si          47.4500    17.4220     4.3660 Si            1 RES     
     571 O           28.1610    15.8470     6.3670 O             1 RES     
     572 OS           1.1650    22.8170    14.2730 OS            1 RES     
     573 O           20.9420    35.2100    13.7210 O             1 RES     
     574 O           44.8110     0.9100     8.5730 O             1 RES     
     575 Si          44.9640     1.5540    14.1870 Si            1 RES     
     576 O           18.5750    27.3960     6.6910 O             1 RES     
     577 O           26.1090     3.3020     3.9990 O             1 RES     
     578 Si          42.6060    34.7230     9.4340 Si            1 RES     
     579 Si          45.3720    10.9610     7.0310 Si            1 RES     
     580 O           22.5860    29.5690     3.9380 O             1 RES     
     581 Si          22.7510    32.3970    13.7560 Si            1 RES     
     582 O           46.9910     8.4630    12.3190 O             1 RES     
     583 Si          40.2970    31.3540     6.4800 Si            1 RES     
     584 Si           6.0960    33.9830    10.8440 Si            1 RES     
     585 O           12.7440    30.9830     8.8940 O             1 RES     
     586 O           46.1210     1.2430    12.8700 O             1 RES     
     587 O           26.2930    30.5420     3.2220 O             1 RES     
     588 OS          24.6990    25.6840    14.8190 OS            1 RES     
     589 O            7.8820    24.5560     9.3200 O             1 RES     
     590 O           27.0360    22.2950     8.3600 O             1 RES     
     591 O           25.2950     0.7040    10.3780 O             1 RES     
     592 Si          24.9280    17.5040     7.8380 Si            1 RES     
     593 O           48.6180     4.1440    10.7340 O             1 RES     
     594 O           25.6520    28.5460     7.8160 O             1 RES     
     595 O           19.8470    24.9840     6.4890 O             1 RES     
     596 Si          41.6370    12.8030    10.9200 Si            1 RES     
     597 Si          35.3520     1.3890    12.1150 Si            1 RES     
     598 Si          46.8970    37.7350     7.7620 Si            1 RES     
     599 O           26.2440     7.4510     2.2640 O             1 RES     
     600 O            5.3780    35.8640     6.8210 O             1 RES     
     601 Si          29.6910    10.9870    13.0470 Si            1 RES     
     602 O           45.1740    27.8150     2.8680 O             1 RES     
     603 Si          43.8770    27.3760    11.5510 Si            1 RES     
     604 Si          11.7030    38.3260    14.0660 Si            1 RES     
     605 Si          12.5270     8.5340     8.2720 Si            1 RES     
     606 O            3.5620    28.0480     7.7900 O             1 RES     
     607 O            5.2150    22.8920     2.7460 O             1 RES     
     608 O           46.5290    22.0670     9.2400 O             1 RES     
     609 Si          13.1480    15.3560     5.0550 Si            1 RES     
     610 O           24.9450    29.7810    11.9010 O             1 RES     
     611 O            0.0590    17.7840     9.3110 O             1 RES     
     612 O           19.1170    13.8090     9.2550 O             1 RES     
     613 O            4.0670    37.3420     4.9070 O             1 RES     
     614 O           36.9140    10.2500     9.4460 O             1 RES     
     615 O           35.5640     6.3480     5.5660 O             1 RES     
     616 O           29.1860    38.1350    12.6570 O             1 RES     
     617 Si          31.8730    37.3300     3.6020 Si            1 RES     
     618 O           42.7740     3.8650     8.6890 O             1 RES     
     619 O           49.9610    33.5230     2.2830 O             1 RES     
     620 O           36.2550    26.7060     8.7730 O             1 RES     
     621 Si          14.0130    15.1700    11.1740 Si            1 RES     
     622 O            3.7870    16.7630    12.8830 O             1 RES     
     623 Si          48.5450     5.0490    12.0960 Si            1 RES     
     624 Si          22.1770    15.5760    12.9460 Si            1 RES     
     625 Si          49.6620    41.8330    13.8930 Si            1 RES     
     626 Si          30.7570    28.2600    14.2650 Si            1 RES     
     627 O           40.6880    22.2130     4.0540 O             1 RES     
     628 OS          23.5790    35.9590    15.4950 OS            1 RES     
     629 O           14.5790    32.1970     7.4600 O             1 RES     
     630 O           40.8770    38.5600     8.8240 O             1 RES     
     631 O           24.8340    43.0310     2.6420 O             1 RES     
     632 Si          30.0510    19.2360     5.0320 Si            1 RES     
     633 O           32.2550     8.4950     2.8570 O             1 RES     
     634 Si          10.2670    20.7780    14.2660 Si            1 RES     
     635 O           34.4760    30.9950    14.3700 O             1 RES     
     636 O           45.1300    32.9420     1.8010 O             1 RES     
     637 O           23.0200    32.1490    12.2200 O             1 RES     
     638 Si           6.2410    43.4290     9.5200 Si            1 RES     
     639 Si          26.1320    27.2990     4.2450 Si            1 RES     
     640 O           39.7030    43.2250     8.3650 O             1 RES     
     641 O            8.5980    46.3720     2.2240 O             1 RES     
     642 Si          34.6490     3.1510     7.7220 Si            1 RES     
     643 O           15.1550    11.3100     5.9300 O             1 RES     
     644 OS          49.2980    28.8440    15.4250 OS            1 RES     
     645 Si           5.3720    10.0700     4.4590 Si            1 RES     
     646 Si          11.8040    33.5990    14.2240 Si            1 RES     
     647 O           42.3490     7.4910    12.1660 O             1 RES     
     648 O           15.4210    40.4660    12.0290 O             1 RES     
     649 O            5.0060     4.4480     4.0530 O             1 RES     
     650 O           19.4280    45.2850     5.8050 O             1 RES     
     651 O           44.4440    46.5930    10.0370 O             1 RES     
     652 O           49.3310    32.3570     9.5320 O             1 RES     
     653 O           30.1120    26.0840     8.9200 O             1 RES     
     654 O           10.4160     1.0990     2.8170 O             1 RES     
     655 O            5.6430    34.8800     9.6260 O             1 RES     
     656 O           10.6130    29.6900     9.5080 O             1 RES     
     657 O           38.9430    30.5190     6.3560 O             1 RES     
     658 O           10.5100     8.1880     5.4640 O             1 RES     
     659 O           18.0080    49.7870    12.4920 O             1 RES     
     660 O           29.9750    18.5390     6.4630 O             1 RES     
     661 Si          43.5010     6.3350    12.2980 Si            1 RES     
     662 O           31.0460    33.8030     5.5130 O             1 RES     
     663 O            8.9270    11.8520    11.1040 O             1 RES     
     664 O           22.6540     0.6510     6.3860 O             1 RES     
     665 O           45.1230    32.2190     9.7350 O             1 RES     
     666 O           15.4250     8.6330     6.4840 O             1 RES     
     667 O           24.3040    33.2740     3.2250 O             1 RES     
     668 O           49.8890    13.0660     8.7600 O             1 RES     
     669 Si           8.1590    11.0630     5.8820 Si            1 RES     
     670 Si           9.7230     6.6800    12.0750 Si            1 RES     
     671 O            3.9800    43.3720    13.5930 O             1 RES     
     672 Si          11.2500     4.1060    12.8800 Si            1 RES     
     673 Si          28.4790     8.4120     7.7260 Si            1 RES     
     674 Si           0.5120     7.5370    12.0020 Si            1 RES     
     675 O            9.6710     5.6550     4.5980 O             1 RES     
     676 OS          13.4000    24.3310    15.2050 OS            1 RES     
     677 O            0.6430    46.6160     2.2410 O             1 RES     
     678 OS          11.0690    12.9990    14.4340 OS            1 RES     
     679 O           47.4550    13.8010     8.3070 O             1 RES     
     680 O           18.8750    25.6890    11.5620 O             1 RES     
     681 Si           9.6420    29.2860     3.6580 Si            1 RES     
     682 O            6.7420    27.7270     7.4510 O             1 RES     
     683 O           29.2080     1.5190    13.8370 O             1 RES     
     684 Si           7.3690    11.2960    10.8940 Si            1 RES     
     685 OS          31.9450    38.3100    15.3200 OS            1 RES     
     686 Si          30.6730    32.5360     9.5370 Si            1 RES     
     687 O           12.3410    33.3180     7.6750 O             1 RES     
     688 Si           5.5320    36.0130     8.4250 Si            1 RES     
     689 Si          23.0290    43.0570    11.1760 Si            1 RES     
     690 Si          40.9590     8.1710     7.5530 Si            1 RES     
     691 O           19.6480    48.2890    13.7740 O             1 RES     
     692 O           34.4150    22.6970     5.0520 O             1 RES     
     693 O           21.5930     3.0260     9.0560 O             1 RES     
     694 Si          35.2580    14.0110    11.5060 Si            1 RES     
     695 O           15.8700    32.0780     9.6110 O             1 RES     
     696 O           27.1660    18.1990     2.9840 O             1 RES     
     697 O            2.9420    29.6550     4.5650 O             1 RES     
     698 Si          25.2930    10.2740    13.0130 Si            1 RES     
     699 Si          41.6730    43.7280     5.2710 Si            1 RES     
     700 O           39.1920     0.5770     7.9150 O             1 RES     
     701 O           12.7510    19.8360     9.1320 O             1 RES     
     702 O           21.9460    42.2760    10.3200 O             1 RES     
     703 Si          27.4560    43.7230    14.4830 Si            1 RES     
     704 O           14.1980    38.2730     2.9000 O             1 RES     
     705 O           22.6260    36.9100    13.1670 O             1 RES     
     706 OS          14.4700    12.5290    14.5470 OS            1 RES     
     707 Si          32.7010    39.1420    14.1330 Si            1 RES     
     708 O           46.6200    17.8880    14.0150 O             1 RES     
     709 Si          15.9120    40.6950    13.5120 Si            1 RES     
     710 O           29.3360    32.1020     8.8840 O             1 RES     
     711 O           49.7930    10.4860     8.6050 O             1 RES     
     712 Si           6.7470    10.0170    13.5860 Si            1 RES     
     713 O           26.2920    12.6820     9.6340 O             1 RES     
     714 O            9.8200    25.0990    10.5220 O             1 RES     
     715 Si          27.4390    19.6000     3.5680 Si            1 RES     
     716 O            6.6230    14.8530     6.6910 O             1 RES     
     717 O            8.6230    49.0540    10.4420 O             1 RES     
     718 O           44.8180    26.8060    10.4470 O             1 RES     
     719 Si           3.0300    44.5360    13.2270 Si            1 RES     
     720 O           34.5170    24.8560     9.2050 O             1 RES     
     721 O           20.2360     9.1000    10.6340 O             1 RES     
     722 O           32.3420    21.8730    12.6260 O             1 RES     
     723 Si          25.7150    41.7100     2.8710 Si            1 RES     
     724 O           34.9960    19.4610     9.2060 O             1 RES     
     725 Si          41.4990    19.5180    11.1150 Si            1 RES     
     726 Si          15.2730    10.2900    12.5260 Si            1 RES     
     727 O           36.2120    18.2560     7.4380 O             1 RES     
     728 O           29.3970    36.5730     9.2700 O             1 RES     
     729 Si          22.5850    10.3320    14.4360 Si            1 RES     
     730 O            5.0300    23.2810    10.2570 O             1 RES     
     731 Si           0.3920    42.2210     4.1890 Si            1 RES     
     732 O            2.2260    26.4020     2.4270 O             1 RES     
     733 O           49.4230    18.8260    12.6940 O             1 RES     
     734 O           27.1160    27.9850     5.1480 O             1 RES     
     735 OS          48.3670     9.0130    14.5320 OS            1 RES     
     736 Si           8.2650    40.9430     4.4180 Si            1 RES     
     737 O           41.1300    22.0980     6.6650 O             1 RES     
     738 OS          44.2080    17.9240    13.6000 OS            1 RES     
     739 O           45.5570    31.9600     4.3400 O             1 RES     
     740 O            0.1660    19.6860     6.1490 O             1 RES     
     741 Si          33.2720     8.2920    11.3850 Si            1 RES     
     742 O           22.7000     0.6170     4.0170 O             1 RES     
     743 O           13.0960    47.7250     5.9260 O             1 RES     
     744 Si          22.7790     1.7000     2.8520 Si            1 RES     
     745 O           16.3630    13.3470     5.6630 O             1 RES     
     746 O           30.9870    48.2450    10.0420 O             1 RES     
     747 O           37.2390    49.7590     3.5030 O             1 RES     
     748 Si          30.8900    16.7310     3.3720 Si            1 RES     
     749 OS           7.2980    34.3290    14.7320 OS            1 RES     
     750 O           26.4990    44.3450     9.2110 O             1 RES     
     751 O           40.4460    40.7640    14.2890 O             1 RES     
     752 O           49.2220    26.2600     7.9750 O             1 RES     
     753 O            3.4010    39.1840    11.4160 O             1 RES     
     754 O           33.9070    31.6450     7.3760 O             1 RES     
     755 O           43.4510    15.8270    10.1300 O             1 RES     
     756 Si          46.0430    25.0580     5.6030 Si            1 RES     
     757 OS           5.7560     2.8940    15.1750 OS            1 RES     
     758 O            1.8810    26.1950     7.7000 O             1 RES     
     759 O           17.3560     2.2180    11.3970 O             1 RES     
     760 O            7.1550    17.3080     4.0380 O             1 RES     
     761 Si          42.4350    10.2010     5.9260 Si            1 RES     
     762 Si          40.6900     3.0210    11.3890 Si            1 RES     
     763 Si          44.8770    29.4980    13.5630 Si            1 RES     
     764 O           19.3480     0.7980     2.3270 O             1 RES     
     765 Si           5.6850    29.3760    13.3250 Si            1 RES     
     766 O           19.9280    29.8800    10.9250 O             1 RES     
     767 O           19.4570    20.9430     7.8900 O             1 RES     
     768 O           10.7040    13.2600     9.7220 O             1 RES     
     769 Si           0.4770     1.6020     5.9420 Si            1 RES     
     770 O            9.4100     1.3120    10.7100 O             1 RES     
     771 Si          18.7360    17.6360     9.5480 Si            1 RES     
     772 O            5.7520    47.8330    12.9800 O             1 RES     
     773 O           19.8340     7.1440     8.9810 O             1 RES     
     774 Si          18.1230     8.5540     3.6600 Si            1 RES     
     775 Si           8.9940    33.1040    10.0430 Si            1 RES     
     776 O           35.6350    37.2760     4.9160 O             1 RES     
     777 O           43.9320    30.7370     6.0400 O             1 RES     
     778 Si          10.3410    36.8300     3.1460 Si            1 RES     
     779 OS          30.0060    34.1070    13.8750 OS            1 RES     
     780 O           33.7480    33.1240    13.3250 O             1 RES     
     781 Si           7.3310    43.7630     4.9050 Si            1 RES     
     782 O           12.4480    23.4040     3.5910 O             1 RES     
     783 O           46.8580    41.0190     2.4920 O             1 RES     
     784 Si          11.1820    20.0760     8.8680 Si            1 RES     
     785 O           32.3270    36.7830     2.1510 O             1 RES     
     786 Si          26.8970    32.7770    12.0530 Si            1 RES     
     787 OS           9.5190    29.2930    14.2260 OS            1 RES     
     788 Si          26.7620     6.1980    14.6850 Si            1 RES     
     789 O           31.1770    38.7570     3.8720 O             1 RES     
     790 O           42.7610    36.9040     6.8720 O             1 RES     
     791 O            0.1790    45.8030    11.0080 O             1 RES     
     792 O           14.9690    39.8680     4.7060 O             1 RES     
     793 O            9.7750    30.5060     2.5650 O             1 RES     
     794 O            9.0660    14.5570    14.6320 O             1 RES     
     795 Si          26.2080    35.7160    11.4330 Si            1 RES     
     796 OS          31.9000    12.8210    15.0330 OS            1 RES     
     797 O           33.8200     1.8110    12.2470 O             1 RES     
     798 O           32.2410    24.6310     8.4590 O             1 RES     
     799 O           44.9250     6.9980    12.2900 O             1 RES     
     800 Si          10.0470     6.9750     9.0140 Si            1 RES     
     801 O            4.9290    13.9990     8.3470 O             1 RES     
     802 Si          23.0970    34.0080     6.9800 Si            1 RES     
     803 O            8.1090     9.4610    13.9870 O             1 RES     
     804 O           35.3680    49.2480     6.6070 O             1 RES     
     805 O           38.6330     3.1870     8.2330 O             1 RES     
     806 O            9.6790    38.1050     2.4130 O             1 RES     
     807 O           24.3640    25.9410     9.8980 O             1 RES     
     808 Si           1.3860     4.4330     6.3760 Si            1 RES     
     809 O           36.0720    25.4030    10.9870 O             1 RES     
     810 Si          33.3970     0.4560     4.1020 Si            1 RES     
     811 O           47.7770    45.4010     4.5940 O             1 RES     
     812 O           49.6460     0.9140     7.0600 O             1 RES     
     813 Si          49.7490    42.7510     8.8430 Si            1 RES     
     814 O           47.7090    20.8010    12.2820 O             1 RES     
     815 O           21.0710     5.0660     7.7670 O             1 RES     
     816 Si          17.6200     8.2770    12.5210 Si            1 RES     
     817 O           23.8990     8.0890     8.4830 O             1 RES     
     818 O           44.9940     6.8110     5.0230 O             1 RES     
     819 O           38.3840    27.7090     9.6910 O             1 RES     
     820 Si           2.3000    49.5910     9.1770 Si            1 RES     
     821 O           11.0760    17.9080    12.0650 O             1 RES     
     822 Si           2.4870    45.5200     5.7490 Si            1 RES     
     823 O            5.1070    13.1130     2.0220 O             1 RES     
     824 O           17.3130    17.3870    10.0950 O             1 RES     
     825 O           38.8030    18.8680     3.1010 O             1 RES     
     826 O            6.2230     5.3790     1.6200 O             1 RES     
     827 O           33.8930    37.3990    11.2720 O             1 RES     
     828 OS          35.5880    37.9490    13.8270 OS            1 RES     
     829 O            5.7350    22.1460    12.4840 O             1 RES     
     830 OS          32.1490    31.5930    15.2900 OS            1 RES     
     831 Si          30.0550    20.4620     9.8690 Si            1 RES     
     832 O            6.6910    21.9270     4.9560 O             1 RES     
     833 O           17.7340    21.6430     3.5230 O             1 RES     
     834 O           19.7000    45.8050    10.1940 O             1 RES     
     835 OS          49.6900    36.1200    14.0730 OS            1 RES     
     836 O           21.0350    10.2870     8.9720 O             1 RES     
     837 Si           0.3040    11.6260     9.5100 Si            1 RES     
     838 Si          47.8920    39.8850     5.9730 Si            1 RES     
     839 O           11.7290    48.3350    13.3710 O             1 RES     
     840 Si          25.8660    44.0270    10.5700 Si            1 RES     
     841 O            3.1940     0.0020     7.9500 O             1 RES     
     842 O           33.6470    34.4260     4.8550 O             1 RES     
     843 Si          30.7270    42.4020     8.4770 Si            1 RES     
     844 Si          34.7700    37.8690     3.8180 Si            1 RES     
     845 O            0.9940    10.8450     2.6310 O             1 RES     
     846 O           29.2810    20.1280    11.1720 O             1 RES     
     847 O           15.4150     7.7660     1.5950 O             1 RES     
     848 O           18.3850    35.8390     4.7270 O             1 RES     
     849 Si          45.2900    25.8680     9.3100 Si            1 RES     
     850 Si          42.5050    22.3130    10.4510 Si            1 RES     
     851 Si          15.7320    29.5360     3.7050 Si            1 RES     
     852 OS          16.8450    36.9720    15.4950 OS            1 RES     
     853 Si           9.6690    47.8430     5.4930 Si            1 RES     
     854 O           12.3740    48.9220     8.1810 O             1 RES     
     855 O           24.6360     0.9360     7.9300 O             1 RES     
     856 O           19.8080     3.0050     3.2320 O             1 RES     
     857 OS          45.8700     1.4490    15.4480 OS            1 RES     
     858 O           35.4430     0.0010    12.9260 O             1 RES     
     859 OS          20.8050    15.8240    14.3030 OS            1 RES     
     860 O            6.8130    27.9240     9.9120 O             1 RES     
     861 O           36.6000    38.8690     6.7020 O             1 RES     
     862 Si          10.1060    19.0830    11.7060 Si            1 RES     
     863 O           19.5560    15.3870     7.1320 O             1 RES     
     864 O           13.4780    47.4240     3.3610 O             1 RES     
     865 O           33.1620    11.7520    13.1050 O             1 RES     
     866 O           10.6930    26.6800     1.2410 O             1 RES     
     867 O            7.3390    23.2290    14.0230 O             1 RES     
     868 O           22.8730    22.8310    11.1670 O             1 RES     
     869 O           11.8470    21.1590     4.2940 O             1 RES     
     870 Si          21.9760    12.3940    12.3550 Si            1 RES     
     871 O           12.8560     9.6200     9.3420 O             1 RES     
     872 Si          15.5080    38.7700     3.6850 Si            1 RES     
     873 Si           1.0020    12.9160    13.8750 Si            1 RES     
     874 O           37.2780    42.6790     9.7680 O             1 RES     
     875 O            8.5470    10.3990     4.4330 O             1 RES     
     876 O            4.3780    46.6300     8.9120 O             1 RES     
     877 O           29.9050    45.6210     6.1860 O             1 RES     
     878 Si          33.6080    14.0500     6.7690 Si            1 RES     
     879 O           17.7290    46.9900     5.8550 O             1 RES     
     880 O           13.0630     2.0570     5.8520 O             1 RES     
     881 Si          18.2760    28.5300    13.6040 Si            1 RES     
     882 O           14.9550    20.6690     8.2220 O             1 RES     
     883 O           45.6690    20.0360    13.0090 O             1 RES     
     884 O           26.1070    41.4050     4.3750 O             1 RES     
     885 O           26.7350    26.8440     2.9100 O             1 RES     
     886 O           30.0560     2.9350     5.7890 O             1 RES     
     887 O           45.2980    21.2120     4.8160 O             1 RES     
     888 OS          25.4760     1.0680    15.2540 OS            1 RES     
     889 O            9.9770    10.8910     9.1250 O             1 RES     
     890 Si          15.7720    32.3240    11.1840 Si            1 RES     
     891 O           25.9570    32.4380     4.9530 O             1 RES     
     892 OS          49.0270    41.1120    15.1460 OS            1 RES     
     893 O           49.6260    38.0500     4.0950 O             1 RES     
     894 Si          27.7560    22.5190     3.0090 Si            1 RES     
     895 O            6.1310    18.0340    12.6980 O             1 RES     
     896 Si          29.6580    12.5070     4.9570 Si            1 RES     
     897 Si          20.6900     3.4160     4.4270 Si            1 RES     
     898 O           18.0140    37.6140     6.4480 O             1 RES     
     899 Si           7.4400    49.6480     6.7860 Si            1 RES     
     900 O           11.4600    42.1930     3.2080 O             1 RES     
     901 O            7.4840    42.2850     4.2520 O             1 RES     
     902 Si          49.3520    36.8980    12.8130 Si            1 RES     
     903 O           20.4090    41.3470     8.5420 O             1 RES     
     904 O           27.7690    15.8050     3.7780 O             1 RES     
     905 O           20.8050    22.5490     6.6200 O             1 RES     
     906 O           47.1940     9.1690     3.9050 O             1 RES     
     907 O           43.1990    32.2580    11.8910 O             1 RES     
     908 O            2.5250     1.7930    12.7490 O             1 RES     
     909 O           15.8720    31.1240     3.5680 O             1 RES     
     910 OS          26.3600     7.3580    15.6490 OS            1 RES     
     911 O           36.9670    23.0980    12.0190 O             1 RES     
     912 O           24.6860     5.7720     8.6550 O             1 RES     
     913 Si           3.3320    17.0320     2.8190 Si            1 RES     
     914 O           46.1960    19.5610     9.2260 O             1 RES     
     915 O            4.2990    11.6510     9.3740 O             1 RES     
     916 Si          43.9040    20.4480     4.8120 Si            1 RES     
     917 O           24.8680    35.8760    12.2940 O             1 RES     
     918 O           23.6580    18.9010     3.6840 O             1 RES     
     919 Si          14.1220    37.2970    12.4430 Si            1 RES     
     920 Si          48.3240     3.2150     9.4960 Si            1 RES     
     921 OS          21.4050     3.7750    14.5830 OS            1 RES     
     922 O            8.7600    45.0380    12.2370 O             1 RES     
     923 Si          35.3480    34.2110     9.5120 Si            1 RES     
     924 Si          47.0210     0.0510    12.4420 Si            1 RES     
     925 OS          37.9700    41.1620    15.2090 OS            1 RES     
     926 O           19.9310    33.8980     5.2210 O             1 RES     
     927 O            7.6010    34.5360     2.5650 O             1 RES     
     928 O           41.9330    37.9030     4.7360 O             1 RES     
     929 Si           6.2890    17.4690     9.5750 Si            1 RES     
     930 O           25.4360    11.1810    11.7760 O             1 RES     
     931 O           10.2860     1.4390     5.2360 O             1 RES     
     932 O           23.4720    43.8750     7.4750 O             1 RES     
     933 O            6.0160    44.9060     9.1190 O             1 RES     
     934 Si          12.5860     9.9290     3.0050 Si            1 RES     
     935 O            2.3750    15.4810     5.2860 O             1 RES     
     936 O           27.3190    29.2610    12.4900 O             1 RES     
     937 Si           5.0570    13.0090     9.6470 Si            1 RES     
     938 O           18.5420     5.3050     7.9260 O             1 RES     
     939 O           48.6410    43.7890     8.4790 O             1 RES     
     940 O           11.8310    30.9040    11.1600 O             1 RES     
     941 O           35.0670    13.4710     6.3520 O             1 RES     
     942 Si          42.0050    38.9920     3.5840 Si            1 RES     
     943 O            8.0640    40.0100     3.0870 O             1 RES     
     944 Si          28.7100    37.9400     8.8920 Si            1 RES     
     945 Si           1.4570     7.3840     7.0950 Si            1 RES     
     946 O           19.5950    31.6930     6.4870 O             1 RES     
     947 Si          20.2910    10.6330    10.3250 Si            1 RES     
     948 O           49.4830     9.5720     4.3120 O             1 RES     
     949 Si          49.2360    30.9390    10.2300 Si            1 RES     
     950 O           29.8460    41.2250     8.0550 O             1 RES     
     951 Si          19.0220    25.9820     7.4110 Si            1 RES     
     952 O           23.4690    13.3370     9.5400 O             1 RES     
     953 O           36.7630    30.9950    13.0960 O             1 RES     
     954 O           26.5620    27.7310    14.5880 O             1 RES     
     955 Si          23.9240    24.9980     8.7160 Si            1 RES     
     956 O           33.2710    37.9530    13.2690 O             1 RES     
     957 O           22.4530    21.1830    13.0020 O             1 RES     
     958 OS          11.9860    33.5310    15.7600 OS            1 RES     
     959 O           25.8540    25.8150     5.0220 O             1 RES     
     960 O           40.4720    31.4740     8.0220 O             1 RES     
     961 Si          49.0790     9.2880     7.9830 Si            1 RES     
     962 O            6.2560     6.2770    13.5190 O             1 RES     
     963 Si          34.2060    40.7980     4.4520 Si            1 RES     
     964 O           38.6100    37.7160     3.1690 O             1 RES     
     965 Si           7.0770    20.2490     8.8390 Si            1 RES     
     966 OS           2.5350     9.1180    14.9460 OS            1 RES     
     967 Si          48.9090    46.5840    11.4290 Si            1 RES     
     968 O           38.3370    26.5730     2.7100 O             1 RES     
     969 Si          34.5520     9.9310     7.0270 Si            1 RES     
     970 Si          20.0360    31.2220    10.1190 Si            1 RES     
     971 O            2.8930    22.2920     2.5400 O             1 RES     
     972 Si          27.6670    16.0710     7.8400 Si            1 RES     
     973 O           28.8060    13.8260     5.0430 O             1 RES     
     974 O           22.2570    24.7790    14.1770 O             1 RES     
     975 Si          24.8180    12.7050    10.9700 Si            1 RES     
     976 Si          48.9160    33.1910     8.2340 Si            1 RES     
     977 Si          19.3220    38.0950    12.5930 Si            1 RES     
     978 Si           1.9380    35.8990    11.6940 Si            1 RES     
     979 OS           5.2630    22.3380    14.8900 OS            1 RES     
     980 O           49.5410    47.6210    12.5080 O             1 RES     
     981 O           45.7460    37.2740    11.2740 O             1 RES     
     982 O           41.7790    30.2140    12.0810 O             1 RES     
     983 O            9.6630    30.5690    12.2770 O             1 RES     
     984 Si          19.9030    14.9890     8.5670 Si            1 RES     
     985 O           25.7710     4.4830     6.4720 O             1 RES     
     986 O           45.7780    22.3830    11.6510 O             1 RES     
     987 Si          10.2130    48.5270    13.7610 Si            1 RES     
     988 O           26.2890    10.8470    14.2120 O             1 RES     
     989 O           48.9850    32.2290     4.6010 O             1 RES     
     990 Si          37.7750    39.8480     6.4840 Si            1 RES     
     991 OS          12.0190    38.7130    15.5210 OS            1 RES     
     992 O            8.1810     1.0180     6.6000 O             1 RES     
     993 O            7.9860     9.8280     2.0970 O             1 RES     
     994 OS           1.8350     6.6180    15.5940 OS            1 RES     
     995 Si          29.5330    33.3360     5.4390 Si            1 RES     
     996 O           46.2350    23.4670     5.7550 O             1 RES     
     997 Si          17.2150    28.3100     6.4770 Si            1 RES     
     998 O           23.2530     7.7300     5.9480 O             1 RES     
     999 O           20.2230    41.7250     6.0320 O             1 RES     
    1000 Si          14.1060     2.9270    12.3560 Si            1 RES     
    1001 O           19.4250    26.0820     8.9530 O             1 RES     
    1002 Si           7.2080    48.9900     9.7760 Si            1 RES     
    1003 O           13.0180    37.7460    13.3970 O             1 RES     
    1004 Si          49.0280    16.6680     9.7360 Si            1 RES     
    1005 O           38.7140    39.7180     7.7470 O             1 RES     
    1006 OS           9.2220    24.8510    14.4470 OS            1 RES     
    1007 Si          30.7840    46.8420     5.9520 Si            1 RES     
    1008 O           10.4830    29.8580     4.8470 O             1 RES     
    1009 O           43.3200    41.9460     1.6670 O             1 RES     
    1010 Si          18.2410    12.9120    10.1490 Si            1 RES     
    1011 Si          41.1410    35.1330    13.6130 Si            1 RES     
    1012 O           10.7840    43.1810    10.3760 O             1 RES     
    1013 O           42.2450    42.8690     9.2390 O             1 RES     
    1014 Si          28.5000    22.7930     8.3570 Si            1 RES     
    1015 O            4.2370    21.0310    10.8790 O             1 RES     
    1016 O           31.8450     8.4730    11.9550 O             1 RES     
    1017 O           44.0220    22.2570     9.9290 O             1 RES     
    1018 Si          39.1410    49.3650     6.8780 Si            1 RES     
    1019 O           10.8590    15.6080    13.4570 O             1 RES     
    1020 Si           5.3790     0.2450     4.5480 Si            1 RES     
    1021 O            8.0870    10.3600     7.2540 O             1 RES     
    1022 O           29.9120    43.3700     9.5960 O             1 RES     
    1023 Si          30.9070    25.1600    14.4120 Si            1 RES     
    1024 Si          43.3470    17.3420     9.7490 Si            1 RES     
    1025 O           21.2180    38.5560     4.1250 O             1 RES     
    1026 Si          46.2780    18.2610    10.0530 Si            1 RES     
    1027 O           19.3690    39.5920     7.2420 O             1 RES     
    1028 O           47.3990    13.5140     4.6950 O             1 RES     
    1029 Si          29.8150    33.5000    12.2720 Si            1 RES     
    1030 O           29.7090     4.6080     3.9520 O             1 RES     
    1031 O           24.4790     6.5760     3.9720 O             1 RES     
    1032 Si          45.4830     0.4720     2.9760 Si            1 RES     
    1033 O           42.9600    21.7040     4.9030 O             1 RES     
    1034 O           11.2310    19.0010     2.7990 O             1 RES     
    1035 Si          30.8700     8.1510     3.5780 Si            1 RES     
    1036 OS          16.8270    17.6410    14.8210 OS            1 RES     
    1037 Si          10.7240    44.5390     9.5680 Si            1 RES     
    1038 O           44.5910     3.2770    10.0920 O             1 RES     
    1039 O           40.6880    12.9890    12.1640 O             1 RES     
    1040 O           23.7620    34.0750     5.5450 O             1 RES     
    1041 O           28.5770    19.4320     4.6810 O             1 RES     
    1042 Si          48.8450    32.4750     3.0400 Si            1 RES     
    1043 O            2.2640    28.7650    11.3580 O             1 RES     
    1044 O            8.7090    18.4050    12.0580 O             1 RES     
    1045 Si          36.6600    29.8290     3.7120 Si            1 RES     
    1046 O           24.6190    21.3980     7.7070 O             1 RES     
    1047 Si          39.7760    27.3710    10.4760 Si            1 RES     
    1048 O           48.4250    30.9370    11.5870 O             1 RES     
    1049 O           36.1050     3.2680     8.2910 O             1 RES     
    1050 O           12.4430     1.3040     8.2790 O             1 RES     
    1051 Si          33.4360    16.4340    10.8380 Si            1 RES     
    1052 Si          30.7530     4.1730     5.0870 Si            1 RES     
    1053 O           10.8410    34.8060    13.8500 O             1 RES     
    1054 O            6.1070    38.0600     5.8620 O             1 RES     
    1055 OS           4.9900    43.2930    16.0260 OS            1 RES     
    1056 O           38.6680    36.4770     8.9480 O             1 RES     
    1057 Si          11.1630     9.6020     5.7720 Si            1 RES     
    1058 O           39.5670    11.5030    13.8690 O             1 RES     
    1059 Si           7.2630    35.2140    13.4180 Si            1 RES     
    1060 Si          40.3730    14.4940     8.7190 Si            1 RES     
    1061 O           49.6810    32.3530     7.0340 O             1 RES     
    1062 O           14.2170    22.5440    13.1760 O             1 RES     
    1063 O           33.6960    15.5260     7.1440 O             1 RES     
    1064 O           34.6540    49.6130     3.8450 O             1 RES     
    1065 O            0.6790    30.3410     5.3820 O             1 RES     
    1066 Si          19.0850    48.6460    12.2470 Si            1 RES     
    1067 OS           1.4720    11.5150    14.5240 OS            1 RES     
    1068 Si          22.1510     2.9900    10.5480 Si            1 RES     
    1069 O           34.7300    36.8210     2.4400 O             1 RES     
    1070 O            2.4910    18.3390     2.9200 O             1 RES     
    1071 Si          46.3210    41.5570     3.9180 Si            1 RES     
    1072 O           35.5150    12.7300     1.6720 O             1 RES     
    1073 O           30.9560    10.9060    13.9280 O             1 RES     
    1074 O           20.6750    35.7400     9.5880 O             1 RES     
    1075 O           44.1660    26.3470     8.2340 O             1 RES     
    1076 Si           0.5010    25.4290     7.9210 Si            1 RES     
    1077 O           25.2210    39.4880     5.9300 O             1 RES     
    1078 O           46.3090    35.2350    12.6710 O             1 RES     
    1079 Si          37.1430    14.4360    13.9330 Si            1 RES     
    1080 O           19.1550     7.3510     3.9290 O             1 RES     
    1081 O           24.3180    25.4750     7.2570 O             1 RES     
    1082 O           44.5330    42.4470    10.6150 O             1 RES     
    1083 O           32.8890    37.2560     8.9580 O             1 RES     
    1084 O            1.4300     7.6250    13.2710 O             1 RES     
    1085 Si          10.0770    18.5520     6.3800 Si            1 RES     
    1086 Si          15.4110    12.2030     8.9330 Si            1 RES     
    1087 Si          23.5250    22.0570    12.3530 Si            1 RES     
    1088 O           32.6580    29.0700    10.7970 O             1 RES     
    1089 O           18.9780    11.5120    10.0640 O             1 RES     
    1090 OS          25.6930    19.3670    13.4870 OS            1 RES     
    1091 O           42.1530     9.8200     4.4030 O             1 RES     
    1092 OS          31.5440    17.1520    13.7880 OS            1 RES     
    1093 Si          37.0160    43.9250    13.0280 Si            1 RES     
    1094 O           18.3820     7.7760    11.1990 O             1 RES     
    1095 O           38.9300    21.2260    12.9580 O             1 RES     
    1096 Si          19.9120    25.9010    10.4390 Si            1 RES     
    1097 O           29.4740    12.4970    12.3920 O             1 RES     
    1098 Si          21.2670    39.6860     3.0300 Si            1 RES     
    1099 O           10.3610    44.5950     2.8460 O             1 RES     
    1100 O           19.7400    45.9700     3.4200 O             1 RES     
    1101 Si          18.8430    10.6020     5.8770 Si            1 RES     
    1102 O           11.3070    24.0840     8.6510 O             1 RES     
    1103 O            8.0970    29.2030     4.1690 O             1 RES     
    1104 O           33.8360    10.8010     2.9710 O             1 RES     
    1105 O            1.1100    20.6060     3.1090 O             1 RES     
    1106 Si          46.7980    20.7630     8.3390 Si            1 RES     
    1107 O           12.9400    38.4750     8.8170 O             1 RES     
    1108 Si          29.6600    44.8580    10.0510 Si            1 RES     
    1109 O           11.2120    15.4640     8.3510 O             1 RES     
    1110 Si          39.6190     2.0610     8.6460 Si            1 RES     
    1111 O           19.3910    39.6610    12.7410 O             1 RES     
    1112 O           47.5620     7.4470     5.5700 O             1 RES     
    1113 Si          39.2700    36.7440    10.3940 Si            1 RES     
    1114 O           43.0340    18.0030     8.3440 O             1 RES     
    1115 Si           7.5990    15.1760    14.5160 Si            1 RES     
    1116 Si          31.7660     6.8110     9.2550 Si            1 RES     
    1117 O            2.4310    20.7180     6.6690 O             1 RES     
    1118 Si          41.7730    44.6900    12.3280 Si            1 RES     
    1119 Si          37.5220    22.0300    13.0870 Si            1 RES     
    1120 O           28.3720    33.8490     7.0030 O             1 RES     
    1121 O           12.9090    27.3060    12.5350 O             1 RES     
    1122 Si           4.1990     5.0560    10.8450 Si            1 RES     
    1123 O           39.9540     5.4880     5.1340 O             1 RES     
    1124 OS          20.7270    20.6660    15.7570 OS            1 RES     
    1125 Si           2.1290    14.5270     4.0690 Si            1 RES     
    1126 Si          23.8080     8.7590     7.0580 Si            1 RES     
    1127 O           15.0930     0.7780     4.4410 O             1 RES     
    1128 O           34.8950     4.1750     6.5650 O             1 RES     
    1129 O           34.3920    29.4680    12.5620 O             1 RES     
    1130 Si          15.1170    13.2130    13.2810 Si            1 RES     
    1131 O            3.3300    22.7720     8.3380 O             1 RES     
    1132 O           18.1330     9.5050     2.4330 O             1 RES     
    1133 O           12.2920    44.5360     9.1110 O             1 RES     
    1134 O            6.9350    20.8710     7.3810 O             1 RES     
    1135 Si           8.2440    37.4110     8.3920 Si            1 RES     
    1136 OS          25.8330    15.4440    13.8280 OS            1 RES     
    1137 Si          13.5490    34.3190    11.9030 Si            1 RES     
    1138 Si          19.7110     7.5830    10.4450 Si            1 RES     
    1139 Si          28.6080    15.3720     4.9640 Si            1 RES     
    1140 O           39.9930     4.1720     3.0720 O             1 RES     
    1141 Si          25.0340    32.0940     8.5620 Si            1 RES     
    1142 OS          40.7010     2.1550    15.2440 OS            1 RES     
    1143 Si          20.9400    24.0480    14.7090 Si            1 RES     
    1144 O           43.6290    33.2150     5.0040 O             1 RES     
    1145 Si          11.3430    41.5240     4.6710 Si            1 RES     
    1146 Si          27.0130    13.1390     8.3330 Si            1 RES     
    1147 Si          48.9600    13.6160     4.9470 Si            1 RES     
    1148 O           26.9220    29.1920     9.9540 O             1 RES     
    1149 Si           6.3490    26.5680     6.4490 Si            1 RES     
    1150 O           26.2180     3.1580    10.9840 O             1 RES     
    1151 O           33.2120    16.3800     9.3320 O             1 RES     
    1152 O           22.4110    48.4080    14.1910 O             1 RES     
    1153 O            6.4260    34.7250    12.1420 O             1 RES     
    1154 O           19.1830    48.4110     2.8480 O             1 RES     
    1155 Si           2.8540    46.5740     8.6460 Si            1 RES     
    1156 O           40.5630    35.5950     5.7950 O             1 RES     
    1157 O           33.2630    10.6490     7.6910 O             1 RES     
    1158 O           30.9350    23.7710    13.4950 O             1 RES     
    1159 O           44.8170    49.4930     6.4370 O             1 RES     
    1160 O           15.8050     0.2400    11.7960 O             1 RES     
    1161 Si          29.1690    40.2680     6.9740 Si            1 RES     
    1162 Si           3.3640     3.1370    13.0630 Si            1 RES     
    1163 O           24.2300    32.0940     9.9360 O             1 RES     
    1164 OS          12.1450    28.5980    14.5190 OS            1 RES     
    1165 O           36.0060    14.0500    12.9430 O             1 RES     
    1166 Si           4.1400    31.8930    12.2360 Si            1 RES     
    1167 O           13.9600    35.7890    11.8600 O             1 RES     
    1168 O           10.1560    17.0980     6.7790 O             1 RES     
    1169 O           31.4100    38.4720    11.0010 O             1 RES     
    1170 O           16.3110     9.1870    12.1930 O             1 RES     
    1171 O           49.7160     6.1130    11.9960 O             1 RES     
    1172 Si          46.2190     6.7850     6.0930 Si            1 RES     
    1173 O           15.5620    23.4400    15.1250 O             1 RES     
    1174 O           49.4500     8.6740    12.1600 O             1 RES     
    1175 Si          37.3660     3.2600    13.5820 Si            1 RES     
    1176 O            0.5590    24.8310     9.4250 O             1 RES     
    1177 OS          45.0770     3.5510    14.3830 OS            1 RES     
    1178 O           31.0190    12.8100     4.2520 O             1 RES     
    1179 O           42.5120    13.8110     3.3200 O             1 RES     
    1180 O           44.9820    35.0040     3.9540 O             1 RES     
    1181 Si          47.8900    40.3320     9.3920 Si            1 RES     
    1182 O           40.7650    19.2600    12.4870 O             1 RES     
    1183 O           49.3310    34.6780     8.0710 O             1 RES     
    1184 O            3.8620    16.9500     1.4150 O             1 RES     
    1185 O            6.5610     9.2230     3.8240 O             1 RES     
    1186 O           34.6850    12.5290    11.3780 O             1 RES     
    1187 Si          24.1050    39.4900    10.4800 Si            1 RES     
    1188 O           33.2570     0.2650     5.6660 O             1 RES     
    1189 O           22.7900     9.8900     7.1890 O             1 RES     
    1190 O           32.6950    35.6060     6.7950 O             1 RES     
    1191 O            5.9340    28.2390    12.2320 O             1 RES     
    1192 O           29.9530    15.9870     4.5410 O             1 RES     
    1193 Si          45.8740    13.8780     8.0790 Si            1 RES     
    1194 O           34.1640    17.8210    10.9570 O             1 RES     
    1195 OS          18.3720    44.3820    14.6580 OS            1 RES     
    1196 Si          49.1160    20.2060    11.9690 Si            1 RES     
    1197 O           15.7400    10.8380     8.1330 O             1 RES     
    1198 Si           5.7440    46.3750     9.5310 Si            1 RES     
    1199 O           38.2740    24.3050    10.1730 O             1 RES     
    1200 O           43.1520     1.7600     6.8610 O             1 RES     
    1201 O           24.4440    16.8930     9.2070 O             1 RES     
    1202 Si          47.1230    44.1060     8.0430 Si            1 RES     
    1203 Si          32.3110    13.8020     4.0170 Si            1 RES     
    1204 O           27.0840     0.2090     8.7460 O             1 RES     
    1205 Si          42.5260    24.7440    12.2770 Si            1 RES     
    1206 O           48.5480     9.5350     6.5140 O             1 RES     
    1207 O           32.0830     5.2400     9.5810 O             1 RES     
    1208 Si          30.7770     6.9750     6.3810 Si            1 RES     
    1209 O           32.6560    17.3460     3.5770 O             1 RES     
    1210 Si          22.9830    46.9500     5.2330 Si            1 RES     
    1211 Si          10.7820    22.8880     7.5800 Si            1 RES     
    1212 O           37.9150    35.4680     2.4360 O             1 RES     
    1213 Si          19.3800    43.8850    13.4490 Si            1 RES     
    1214 Si          28.5620    10.2560     3.2980 Si            1 RES     
    1215 O           39.5970     8.4610     6.8880 O             1 RES     
    1216 O           28.0860    27.0470    12.8440 O             1 RES     
    1217 Si          12.4540     0.0520     9.2110 Si            1 RES     
    1218 O           46.1330    18.2330    11.5320 O             1 RES     
    1219 O           25.1730     9.3400     6.4250 O             1 RES     
    1220 O           33.3330    44.0330    10.0310 O             1 RES     
    1221 O           41.8390    24.0760     5.2260 O             1 RES     
    1222 Si          37.3600    17.2670     7.9960 Si            1 RES     
    1223 Si          28.2610    28.7300     5.8670 Si            1 RES     
    1224 Si          30.2820     8.1480    12.0040 Si            1 RES     
    1225 O            3.8730     2.3210     7.7110 O             1 RES     
    1226 O            9.8770    49.4910    12.5530 O             1 RES     
    1227 O           14.0220    10.2330    11.5570 O             1 RES     
    1228 Si          22.5800    13.5060     8.3100 Si            1 RES     
    1229 O           49.1180     1.8730     9.3660 O             1 RES     
    1230 Si          48.9490    14.0960     8.0240 Si            1 RES     
    1231 Si          46.8790     3.8960     6.8860 Si            1 RES     
    1232 O           35.4650    32.8620     6.0240 O             1 RES     
    1233 O           27.1510    37.9040     8.7450 O             1 RES     
    1234 Si          17.7620    23.1290     3.9820 Si            1 RES     
    1235 O           26.4320    17.0710     7.9550 O             1 RES     
    1236 O           14.9030    22.0870     6.1110 O             1 RES     
    1237 O           16.5420    43.3890     8.1150 O             1 RES     
    1238 O            0.9190    22.9880     4.2150 O             1 RES     
    1239 Si          17.7200    13.2740     4.9340 Si            1 RES     
    1240 O            5.8700     8.7590    13.6460 O             1 RES     
    1241 O            5.1420    42.4580     8.9610 O             1 RES     
    1242 O           34.5830     8.8080     5.8920 O             1 RES     
    1243 O            0.6930    22.6550     1.5560 O             1 RES     
    1244 O           27.9120    44.4110     6.9660 O             1 RES     
    1245 Si          48.7060    12.1020    12.1750 Si            1 RES     
    1246 O           18.3710    13.4360    11.6530 O             1 RES     
    1247 O           40.0080     4.3710    11.6840 O             1 RES     
    1248 O           18.3840    14.6960     5.1130 O             1 RES     
    1249 O            5.2630    46.3220    11.0400 O             1 RES     
    1250 O           47.8390    21.1070     5.3680 O             1 RES     
    1251 Si          26.3970    15.0080    12.4620 Si            1 RES     
    1252 O           42.3170    26.3140     6.2530 O             1 RES     
    1253 O           25.3350     7.2390    10.7060 O             1 RES     
    1254 Si          31.4810    26.0880     8.1040 Si            1 RES     
    1255 O           49.2420    36.2610     5.9950 O             1 RES     
    1256 O           46.9280     2.4810     9.7930 O             1 RES     
    1257 O           36.5390    30.8970     7.4160 O             1 RES     
    1258 O           32.5680    21.7720     6.0700 O             1 RES     
    1259 O            1.2920    19.6120     8.2810 O             1 RES     
    1260 O           24.1240    12.2340     5.0580 O             1 RES     
    1261 Si           3.8400     3.8590     8.0030 Si            1 RES     
    1262 Si           2.7330     7.5870     9.8720 Si            1 RES     
    1263 Si           3.3400    38.4150    12.7900 Si            1 RES     
    1264 OS          17.5840    22.2940    14.2440 OS            1 RES     
    1265 O            7.5060    25.9090    11.4880 O             1 RES     
    1266 Si           8.4160    24.7610     7.8710 Si            1 RES     
    1267 O            1.2370    16.9980    13.2580 O             1 RES     
    1268 O           14.4070     2.7210     7.7180 O             1 RES     
    1269 O           25.0570    40.4720    11.2770 O             1 RES     
    1270 O           21.3450    31.9200     4.4470 O             1 RES     
    1271 Si          11.9350    39.3810     9.6200 Si            1 RES     
    1272 Si          12.9040     2.3990     7.3500 Si            1 RES     
    1273 O           34.6530     4.1580     4.0910 O             1 RES     
    1274 Si          20.6580    32.5660     5.7020 Si            1 RES     
    1275 O            9.9550     6.7670    10.5320 O             1 RES     
    1276 OS          18.4200    12.3350    14.1680 OS            1 RES     
    1277 O            6.3270    49.7210     5.6860 O             1 RES     
    1278 O           28.0230    23.1170     4.3880 O             1 RES     
    1279 Si          13.5940     1.3770     4.4050 Si            1 RES     
    1280 O           26.0460    12.7870     7.0520 O             1 RES     
    1281 Si           8.1330    39.0510    11.0320 Si            1 RES     
    1282 O           29.3400     0.0210     9.9030 O             1 RES     
    1283 O           20.6290    19.5290    12.8240 O             1 RES     
    1284 O           46.3110    16.6070     5.0460 O             1 RES     
    1285 O           35.1690     9.0720     8.2150 O             1 RES     
    1286 O           22.7640    36.2150    10.5800 O             1 RES     
    1287 O           21.7240     4.2780    11.3080 O             1 RES     
    1288 O           30.1630    19.2540     8.8420 O             1 RES     
    1289 O           10.6230    37.1910    13.7770 O             1 RES     
    1290 Si          15.8320    17.6140    10.7090 Si            1 RES     
    1291 OS          22.3720    44.6030    15.7930 OS            1 RES     
    1292 O           49.4760    39.6740     5.8810 O             1 RES     
    1293 Si          39.0210    26.4570    13.3240 Si            1 RES     
    1294 O           17.5210    13.0590     3.3260 O             1 RES     
    1295 Si          13.2090    43.8680     5.5150 Si            1 RES     
    1296 OS          42.7060    40.5940    15.8250 OS            1 RES     
    1297 O           36.7560    28.3420     3.2740 O             1 RES     
    1298 O            0.1930     8.2110     7.5440 O             1 RES     
    1299 O           40.9160     8.9220     9.0310 O             1 RES     
    1300 OS           6.2970    11.2340    14.4080 OS            1 RES     
    1301 OS           7.4210    16.1880    15.7340 OS            1 RES     
    1302 Si          35.5870    48.5000    12.5270 Si            1 RES     
    1303 O           32.5230    30.9610    12.8910 O             1 RES     
    1304 Si          26.3850    30.8540     4.7940 Si            1 RES     
    1305 Si          21.2500     0.8260    12.5180 Si            1 RES     
    1306 O            8.7310    35.5060    12.9560 O             1 RES     
    1307 O           21.1900    32.7920    13.7720 O             1 RES     
    1308 O           28.7420    44.1770    13.7490 O             1 RES     
    1309 O           27.9370    28.7950     7.4510 O             1 RES     
    1310 Si          32.3110     1.7010    11.9900 Si            1 RES     
    1311 O           20.8080     3.1280     6.0350 O             1 RES     
    1312 O           40.3960    19.4270    10.0400 O             1 RES     
    1313 O            8.1620    44.6540     3.9810 O             1 RES     
    1314 O           31.2400    47.1840     7.4300 O             1 RES     
    1315 O           23.7120     2.8520    10.9510 O             1 RES     
    1316 Si          21.9530    49.8670     5.1650 Si            1 RES     
    1317 O           28.4080    32.9060    12.4150 O             1 RES     
    1318 Si           2.6000    39.6720    10.1250 Si            1 RES     
    1319 Si          14.2540    20.1500     9.5970 Si            1 RES     
    1320 Si          33.7110    11.3420    11.5940 Si            1 RES     
    1321 O            2.3200    36.0940    10.2110 O             1 RES     
    1322 Si          33.6340    36.2480     7.9020 Si            1 RES     
    1323 Si          41.6060     1.6380    14.0500 Si            1 RES     
    1324 OS          38.0030    27.3230    14.0780 OS            1 RES     
    1325 O           10.7800     5.6640    12.5930 O             1 RES     
    1326 O           24.1490    43.2310    10.0890 O             1 RES     
    1327 O           43.1390    28.5830    10.8060 O             1 RES     
    1328 O           47.2410     5.9820    11.9870 O             1 RES     
    1329 Si          13.1380    10.7930    10.3950 Si            1 RES     
    1330 O           17.1380    33.0670    11.5390 O             1 RES     
    1331 Si          26.4910    29.8150    11.3490 Si            1 RES     
    1332 O           18.5480    12.0030     5.4170 O             1 RES     
    1333 O           31.5450    35.9710     4.5650 O             1 RES     
    1334 O           44.7380    47.6000    14.9660 O             1 RES     
    1335 Si           0.7740    47.0520     3.7350 Si            1 RES     
    1336 O            2.5520     7.5940     3.3250 O             1 RES     
    1337 Si          45.9920    32.1560     8.3110 Si            1 RES     
    1338 O           44.3380    46.0900     7.4270 O             1 RES     
    1339 Si          43.0130    29.5670     5.5960 Si            1 RES     
    1340 Si          43.2570     4.0900    10.1390 Si            1 RES     
    1341 O            6.7530    10.6080    12.1240 O             1 RES     
    1342 Si          27.4220     3.6870    10.1520 Si            1 RES     
    1343 OS          48.3360    17.2730    15.7300 OS            1 RES     
    1344 O           20.0630    39.6790     1.9350 O             1 RES     
    1345 O           17.8060     0.4220     4.2120 O             1 RES     
    1346 O           38.2740     6.0910    11.2360 O             1 RES     
    1347 O            4.5930    39.7580     5.1360 O             1 RES     
    1348 Si          28.9100     1.9180     6.1170 Si            1 RES     
    1349 O           11.7560     6.7500     4.0410 O             1 RES     
    1350 Si          24.7800    37.9610     5.9250 Si            1 RES     
    1351 O            9.0370     8.2650     8.6630 O             1 RES     
    1352 O           24.0770    12.4170     2.5300 O             1 RES     
    1353 O           24.6140    21.0140    11.8510 O             1 RES     
    1354 O           13.2480    46.0200    12.6720 O             1 RES     
    1355 O           10.7970    47.4620     6.5500 O             1 RES     
    1356 Si          21.8370    41.1810     9.1520 Si            1 RES     
    1357 O           41.2430    31.7290    14.0450 O             1 RES     
    1358 O            9.1480     7.9230     3.5290 O             1 RES     
    1359 Si          40.5370     9.9940    10.0790 Si            1 RES     
    1360 O            5.7350     5.3190    11.2190 O             1 RES     
    1361 O            1.9570    38.9090     4.9630 O             1 RES     
    1362 O           39.2870    40.1540    10.0700 O             1 RES     
    1363 O            3.8470    17.0590     4.3490 O             1 RES     
    1364 OS           6.1870    38.7680    14.8600 OS            1 RES     
    1365 O           17.8950    41.6230     7.1700 O             1 RES     
    1366 Si          41.1600    32.1080     9.2800 Si            1 RES     
    1367 Si           7.5300    18.7090     4.5500 Si            1 RES     
    1368 O           39.2430    10.7900     9.7430 O             1 RES     
    1369 O           38.8950    14.7690     9.3090 O             1 RES     
    1370 O            6.8580    36.6660    13.7220 O             1 RES     
    1371 Si          32.5590    37.3940    10.4550 Si            1 RES     
    1372 O           36.1270    46.5280     6.8370 O             1 RES     
    1373 O           35.6710     7.5290     3.6010 O             1 RES     
    1374 Si          41.2410     5.5420     6.0670 Si            1 RES     
    1375 O           44.3530    47.2570     5.2990 O             1 RES     
    1376 O           21.0960    11.5510    11.3260 O             1 RES     
    1377 O           36.3140    47.7270     2.8030 O             1 RES     
    1378 Si           3.2690     7.8770     4.6890 Si            1 RES     
    1379 Si          44.3260    32.8360    10.9620 Si            1 RES     
    1380 O            5.9080    44.4830     4.7470 O             1 RES     
    1381 O           37.8670    48.5510     6.9750 O             1 RES     
    1382 Si          47.7890    29.7170     7.8140 Si            1 RES     
    1383 O           10.5360    45.8010    10.8160 O             1 RES     
    1384 O           30.0420     6.9110     3.1560 O             1 RES     
    1385 O           29.3280    25.3040     5.3200 O             1 RES     
    1386 O            2.6590     4.1220     4.7300 O             1 RES     
    1387 O            3.6920    39.0040     2.9030 O             1 RES     
    1388 O           46.0630     7.6860    10.0550 O             1 RES     
    1389 O           16.5760    13.7940    13.5320 O             1 RES     
    1390 Si          42.8980    39.7550    11.7930 Si            1 RES     
    1391 Si          44.6300    32.1160     5.5620 Si            1 RES     
    1392 Si           6.6730    28.6420     4.1830 Si            1 RES     
    1393 OS          13.7190    26.7830    15.1490 OS            1 RES     
    1394 O           35.2920    12.1580     4.2350 O             1 RES     
    1395 O           23.1660    15.8090     4.5290 O             1 RES     
    1396 O           36.2370    33.6100    13.1820 O             1 RES     
    1397 O            7.7920    19.5000     3.2450 O             1 RES     
    1398 Si          39.0220    39.1650     3.7950 Si            1 RES     
    1399 O           38.6900    39.3440     5.2950 O             1 RES     
    1400 Si          20.5840    46.4850     9.0350 Si            1 RES     
    1401 Si          26.1220     6.8770     3.7100 Si            1 RES     
    1402 O           20.6050    27.2480    10.9330 O             1 RES     
    1403 O           42.4750    43.0040     4.0240 O             1 RES     
    1404 O           48.6060    16.6050     3.7510 O             1 RES     
    1405 O           31.7590    28.7610    13.1040 O             1 RES     
    1406 O           17.4440    10.2380     6.5740 O             1 RES     
    1407 O           29.8050     9.3610     3.5760 O             1 RES     
    1408 OS          10.0160     7.8800    15.3240 OS            1 RES     
    1409 O           24.9300     2.2730     5.9240 O             1 RES     
    1410 Si          31.2540    22.1560    13.7340 Si            1 RES     
    1411 O           45.0480    49.2860     3.9300 O             1 RES     
    1412 O           48.9510    41.4400     9.0160 O             1 RES     
    1413 Si          23.2200    44.8880     8.7860 Si            1 RES     
    1414 O           46.5110    30.6330     8.0910 O             1 RES     
    1415 Si           2.9310    20.3950    11.4460 Si            1 RES     
    1416 O           37.0440    36.4570     7.0990 O             1 RES     
    1417 O           23.2340    45.3400    13.3730 O             1 RES     
    1418 Si           4.5790    17.8720    12.0130 Si            1 RES     
    1419 O           31.9420    31.6430     9.0490 O             1 RES     
    1420 Si          20.8980    21.6300     7.9010 Si            1 RES     
    1421 O           20.6810    24.5750    10.5290 O             1 RES     
    1422 Si          49.8680    39.7510    11.6200 Si            1 RES     
    1423 O           46.8890    41.2540    10.2250 O             1 RES     
    1424 OS          27.9750    42.7650    15.5640 OS            1 RES     
    1425 Si          41.9310    29.5470    10.6970 Si            1 RES     
    1426 O            0.9740     5.9620     6.5700 O             1 RES     
    1427 O           15.6560    34.3010     8.0550 O             1 RES     
    1428 O           11.1760    49.7570    10.1540 O             1 RES     
    1429 O           16.9850    20.3870     6.9930 O             1 RES     
    1430 O           21.1540    22.3680     9.2110 O             1 RES     
    1431 Si           7.0370     4.9610    12.2210 Si            1 RES     
    1432 O            9.8820    35.6720     2.0770 O             1 RES     
    1433 O            2.4470     0.3440    10.6000 O             1 RES     
    1434 Si          34.4530    45.6960    12.7250 Si            1 RES     
    1435 O           35.4760     0.9680    10.6270 O             1 RES     
    1436 OS          36.0920     3.5090    14.4360 OS            1 RES     
    1437 O           38.3100    16.9160     6.8450 O             1 RES     
    1438 Si          49.5990    10.9130     3.3680 Si            1 RES     
    1439 O           30.3820    40.4390    11.8390 O             1 RES     
    1440 O            2.3780    48.0490     9.1800 O             1 RES     
    1441 O           11.9200    35.5030     8.8340 O             1 RES     
    1442 Si          11.6610    42.2820    11.3350 Si            1 RES     
    1443 O           16.2840     2.2140     9.1100 O             1 RES     
    1444 O           28.8800    23.1380     6.8910 O             1 RES     
    1445 Si          15.1530     8.2330     3.0780 Si            1 RES     
    1446 O           37.6080    16.6840     3.1480 O             1 RES     
    1447 O           16.5280    23.4710     4.8550 O             1 RES     
    1448 O            2.0400    19.3430    10.6480 O             1 RES     
    1449 O           26.6770    32.2300     8.4070 O             1 RES     
    1450 O           34.8490    45.1810     8.5100 O             1 RES     
    1451 O           44.2890    39.3050    11.3820 O             1 RES     
    1452 O           33.8490    20.4930    11.2560 O             1 RES     
    1453 O           42.6690    41.1440    11.1220 O             1 RES     
    1454 O            1.5370    26.3480    11.4820 O             1 RES     
    1455 O           31.1460    46.0030     2.2060 O             1 RES     
    1456 Si          28.9500    49.9680    13.8490 Si            1 RES     
    1457 O            6.7110    37.0250     8.4600 O             1 RES     
    1458 O           40.4520    26.0420     4.4160 O             1 RES     
    1459 Si           1.4310    29.3570     4.3530 Si            1 RES     
    1460 Si          29.4410    44.1440     6.3630 Si            1 RES     
    1461 Si          34.5620    37.2000    12.6940 Si            1 RES     
    1462 O           15.4150    17.9690     3.7480 O             1 RES     
    1463 O           20.4180    47.7500    16.1300 O             1 RES     
    1464 O           48.6890    29.9460     9.1440 O             1 RES     
    1465 Si          19.7040    35.1190     4.3010 Si            1 RES     
    1466 O           24.8300    49.2830    13.5330 O             1 RES     
    1467 Si           9.2350    40.2780     8.5050 Si            1 RES     
    1468 O           10.1700    22.6780     3.4770 O             1 RES     
    1469 O           28.0260    48.4980     3.9550 O             1 RES     
    1470 Si          10.2590     7.0960     4.3300 Si            1 RES     
    1471 Si          10.7680     0.3680     4.1590 Si            1 RES     
    1472 O            7.4330    33.4430    10.3300 O             1 RES     
    1473 O           37.5930    12.8270     9.0240 O             1 RES     
    1474 O           39.2760    49.7930     5.2960 O             1 RES     
    1475 Si          41.8360    40.0350    14.6450 Si            1 RES     
    1476 Si          40.4220    22.1860     8.0240 Si            1 RES     
    1477 O           41.5440    30.2860     5.8490 O             1 RES     
    1478 Si          15.1180    23.4980     5.5180 Si            1 RES     
    1479 OS          31.2930    29.1530    15.5050 OS            1 RES     
    1480 O           37.2250    44.6220     8.1630 O             1 RES     
    1481 Si          37.4620    29.9450     6.6480 Si            1 RES     
    1482 O            2.4090    45.0060    14.6690 O             1 RES     
    1483 O           28.2940     2.3970     9.6980 O             1 RES     
    1484 Si          49.9060    16.3460     2.8790 Si            1 RES     
    1485 Si          49.7400    49.0190    13.2010 Si            1 RES     
    1486 O            2.1370    21.5170    12.1680 O             1 RES     
    1487 OS           2.7220    39.5190    13.6440 OS            1 RES     
    1488 Si          23.4490    48.7390    13.0610 Si            1 RES     
    1489 O           43.6060    34.1830    10.4770 O             1 RES     
    1490 Si          40.0440    22.8680     2.7750 Si            1 RES     
    1491 Si          30.3540    49.4740    11.0060 Si            1 RES     
    1492 O           10.4660    28.0500     3.3230 O             1 RES     
    1493 O           43.5030    29.4090     4.0760 O             1 RES     
    1494 O           12.3350    34.3870    10.9070 O             1 RES     
    1495 Si          30.2830    35.4870    10.0540 Si            1 RES     
    1496 O            1.5180     7.7760    10.8100 O             1 RES     
    1497 O           13.9350    48.6380    12.4890 O             1 RES     
    1498 O           11.8470    15.4370     5.8870 O             1 RES     
    1499 Si          36.3330    41.9210    10.7280 Si            1 RES     
    1500 Si          35.4250    49.3560     9.7630 Si            1 RES     
    1501 O           20.1260    10.3950     6.6900 O             1 RES     
    1502 O           42.1540     3.4420    10.9540 O             1 RES     
    1503 OS          48.7590     4.2680    13.4230 OS            1 RES     
    1504 O           34.3070    45.7400    11.1810 O             1 RES     
    1505 Si          28.9580    19.7090    12.6810 Si            1 RES     
    1506 Si           6.1900     2.5090    13.7400 Si            1 RES     
    1507 O           13.5450     2.5430     3.3690 O             1 RES     
    1508 Si          10.8420    26.5980     2.8430 Si            1 RES     
    1509 Si          20.2770    23.7320     5.6520 Si            1 RES     
    1510 Si          14.4350    38.4700     8.2500 Si            1 RES     
    1511 O           14.3810    38.4590    11.4540 O             1 RES     
    1512 Si          40.9010     7.9910    12.3730 Si            1 RES     
    1513 Si          19.8480     9.1710    14.5010 Si            1 RES     
    1514 Si           4.0140    12.4090     2.8490 Si            1 RES     
    1515 O           46.4900     5.3760     6.6270 O             1 RES     
    1516 Si          23.8000    24.7180    13.9410 Si            1 RES     
    1517 O           43.7220     5.6280     2.8890 O             1 RES     
    1518 O            9.7740     8.0690    12.8280 O             1 RES     
    1519 O           11.2780    22.8880     6.1010 O             1 RES     
    1520 Si          34.9060    19.1140     7.6960 Si            1 RES     
    1521 Si          20.9400    21.1020    13.9370 Si            1 RES     
    1522 O           14.3030     7.0030     3.5270 O             1 RES     
    1523 O            7.6360     4.7540     3.4860 O             1 RES     
    1524 O            1.1770    36.5940     7.9670 O             1 RES     
    1525 O           11.1080    39.5610    13.4330 O             1 RES     
    1526 Si          41.8900    36.6090     5.6030 Si            1 RES     
    1527 Si           8.3270    24.6850    10.8860 Si            1 RES     
    1528 O           46.1650    30.2530    12.9010 O             1 RES     
    1529 Si          48.5580    37.0190     4.7550 Si            1 RES     
    1530 O           18.0280    24.1480     2.7820 O             1 RES     
    1531 O           38.2120    40.3700     3.1680 O             1 RES     
    1532 O           13.2290    18.9340     4.1960 O             1 RES     
    1533 Si          46.3700    21.4260    12.7990 Si            1 RES     
    1534 Si           2.5850    16.6810    13.9840 Si            1 RES     
    1535 O            1.5240    42.1600     5.3490 O             1 RES     
    1536 O           34.2080    41.4020     2.9950 O             1 RES     
    1537 O            9.9340    30.2440     7.3410 O             1 RES     
    1538 O            2.0630    15.5610     2.9380 O             1 RES     
    1539 Si          27.0240    28.3330     8.6310 Si            1 RES     
    1540 O           38.5380    40.3870    12.5310 O             1 RES     
    1541 O           35.8430     5.7330    11.5410 O             1 RES     
    1542 O           27.5350     2.5990     5.9240 O             1 RES     
    1543 Si          43.6470     6.3850     4.3100 Si            1 RES     
    1544 O           42.4490    45.0810     5.6010 O             1 RES     
    1545 O           32.9010    10.6860    15.7000 O             1 RES     
    1546 O           38.6840    34.5900     7.1850 O             1 RES     
    1547 Si          43.7680    26.7680     6.7440 Si            1 RES     
    1548 OS          20.0360    34.2170    15.6750 OS            1 RES     
    1549 Si          42.4550    31.3330    13.0540 Si            1 RES     
    1550 O            4.9090    17.5310    10.4690 O             1 RES     
    1551 O           28.7750     5.2600     1.7050 O             1 RES     
    1552 Si          31.4390    21.9590     5.0050 Si            1 RES     
    1553 Si          21.4930    10.7350     7.5580 Si            1 RES     
    1554 O           13.9710     6.4620     5.8890 O             1 RES     
    1555 O           33.0330    13.1450     8.0570 O             1 RES     
    1556 Si          34.9240    33.4730     4.7240 Si            1 RES     
    1557 O           17.3600    41.1060    13.5630 O             1 RES     
    1558 O           26.3210    32.7020    13.5690 O             1 RES     
    1559 Si          31.5440    41.4570    12.4750 Si            1 RES     
    1560 O           29.3740    43.0310     2.4190 O             1 RES     
    1561 O           25.4890    13.7300    12.0520 O             1 RES     
    1562 Si          41.1940    25.4280     5.6740 Si            1 RES     
    1563 OS          38.8210     8.9780    15.0080 OS            1 RES     
    1564 Si          25.0190    33.6200     4.5810 Si            1 RES     
    1565 OS          23.1240    10.3070    15.9810 OS            1 RES     
    1566 O           25.8520    37.3180     4.9610 O             1 RES     
    1567 O           33.7020     3.5210     8.8710 O             1 RES     
    1568 Si          49.5320    36.2110     7.5480 Si            1 RES     
    1569 O            7.9020    12.8950     5.8120 O             1 RES     
    1570 Si          32.6620    21.5750    11.0900 Si            1 RES     
    1571 Si          41.8410    37.7970     9.8630 Si            1 RES     
    1572 O           24.8970    38.6820     9.4090 O             1 RES     
    1573 O           19.4320    30.9940     8.6450 O             1 RES     
    1574 O           23.0340     6.4600    10.7360 O             1 RES     
    1575 Si           6.1230    21.0220     6.0700 Si            1 RES     
    1576 O           26.2580     7.8970     4.8800 O             1 RES     
    1577 O           24.7020    27.8820     4.0000 O             1 RES     
    1578 O            6.7870    43.4910    11.0880 O             1 RES     
    1579 O            4.7200    26.2960     6.7230 O             1 RES     
    1580 O           37.7030    28.5370     7.3720 O             1 RES     
    1581 O           34.9560    33.9470    11.0150 O             1 RES     
    1582 O           14.4000    21.2030    10.7780 O             1 RES     
    1583 OS          17.2170    24.9120    13.6390 OS            1 RES     
    1584 O            4.4340    46.6510     3.6400 O             1 RES     
    1585 O           30.7400    41.4030     3.7310 O             1 RES     
    1586 O            4.3840    13.3880    11.0640 O             1 RES     
    1587 O           22.1030    11.6210    13.7130 O             1 RES     
    1588 Si          31.4340    47.1230     9.0250 Si            1 RES     
    1589 O           36.8030    42.6740    12.0850 O             1 RES     
    1590 Si          22.1270    35.1590     9.6950 Si            1 RES     
    1591 O            3.8970     7.1550    14.0880 O             1 RES     
    1592 Si           4.3300    41.3140     8.1820 Si            1 RES     
    1593 Si          10.1830    35.9490    12.9900 Si            1 RES     
    1594 O           40.7490    28.5730    10.2950 O             1 RES     
    1595 O           32.6930    40.5850     4.9870 O             1 RES     
    1596 O           31.9860     3.9110     4.1460 O             1 RES     
    1597 O           45.5510     9.8530     8.1410 O             1 RES     
    1598 Si          30.2600    26.5190     5.2240 Si            1 RES     
    1599 Si          30.8330    16.8930    12.4020 Si            1 RES     
    1600 O           33.2690     3.5440     1.8200 O             1 RES     
    1601 Si          33.1600    28.3150     9.5480 Si            1 RES     
    1602 O           44.0770    47.9320    12.2840 O             1 RES     
    1603 O           47.5480    38.0060     5.6180 O             1 RES     
    1604 Si          37.6450    27.2860     8.3550 Si            1 RES     
    1605 Si          17.1250    18.3300    13.4100 Si            1 RES     
    1606 O            7.1940    24.1080     3.5390 O             1 RES     
    1607 Si          16.4750     0.4530     5.0370 Si            1 RES     
    1608 O           19.0150    33.9640    12.9490 O             1 RES     
    1609 O           48.2660    28.9640    13.3060 O             1 RES     
    1610 Si          13.7360    46.8480     4.7960 Si            1 RES     
    1611 O           45.7160     3.1720     7.7260 O             1 RES     
    1612 O           47.2460    43.8840     6.4930 O             1 RES     
    1613 Si          22.0170    45.0380    14.2880 Si            1 RES     
    1614 O           33.8920     7.0090    12.1530 O             1 RES     
    1615 Si          39.0750     5.0900     3.8950 Si            1 RES     
    1616 O            7.5480    21.7370     2.2120 O             1 RES     
    1617 Si           8.7090    29.5450    12.8640 Si            1 RES     
    1618 O           23.3460    33.7330    14.3400 O             1 RES     
    1619 O           38.7150    11.9880     2.8450 O             1 RES     
    1620 O           23.8410    10.0350    13.5690 O             1 RES     
    1621 O           17.3960    45.5620     7.7220 O             1 RES     
    1622 Si          25.4570     0.0150     8.9280 Si            1 RES     
    1623 O           26.8410    31.3830    11.3970 O             1 RES     
    1624 Si           6.6870    28.7520     8.6050 Si            1 RES     
    1625 OS          43.8080    36.4830    16.0540 OS            1 RES     
    1626 O           22.9350     8.4130     3.4420 O             1 RES     
    1627 O           39.6580    23.4910     8.2180 O             1 RES     
    1628 O           40.5220    13.4140     7.5850 O             1 RES     
    1629 O           12.5910    40.7200     5.2870 O             1 RES     
    1630 O           29.9960    21.1650    13.4540 O             1 RES     
    1631 Si          41.0860    12.8460     6.2010 Si            1 RES     
    1632 Si          16.5360    42.3980     6.8450 Si            1 RES     
    1633 O            5.2850    29.5070     8.5800 O             1 RES     
    1634 Si          45.8050    26.2980     2.8180 Si            1 RES     
    1635 O           13.0470    46.5060     7.9250 O             1 RES     
    1636 O            0.7180    49.8240     8.9760 O             1 RES     
    1637 OS          36.5360    15.8240    14.3420 OS            1 RES     
    1638 O           38.6230    13.9870    13.4050 O             1 RES     
    1639 Si          11.1980    35.2150    10.2120 Si            1 RES     
    1640 O           16.1250    27.2630     7.1250 O             1 RES     
    1641 O           42.0090     8.9310     6.7160 O             1 RES     
    1642 O           29.4600     7.4260     7.0500 O             1 RES     
    1643 Si          24.4940    16.1220     5.1530 Si            1 RES     
    1644 O           14.2950    24.3120     4.4240 O             1 RES     
    1645 Si          38.8680    40.4150    14.1390 Si            1 RES     
    1646 O           29.1570    32.0700     6.3030 O             1 RES     
    1647 O           16.2070    42.0650     2.8460 O             1 RES     
    1648 OS          19.4590    10.4200    15.3960 OS            1 RES     
    1649 Si           9.1930     2.1070     6.1930 Si            1 RES     
    1650 O           22.3780    10.9030     3.1270 O             1 RES     
    1651 O           29.5450    27.8690     5.5900 O             1 RES     
    1652 Si           9.7130    35.8030     6.0890 Si            1 RES     
    1653 O           36.1380    34.2730     4.0100 O             1 RES     
    1654 O           38.8820    42.7470     2.5550 O             1 RES     
    1655 O           41.4980     4.0980     6.5750 O             1 RES     
    1656 O           44.7810    41.7280     3.7870 O             1 RES     
    1657 Si          21.5530    37.3940     5.0980 Si            1 RES     
    1658 O           15.2540    46.7190     5.0130 O             1 RES     
    1659 Si          48.3050     8.8110     5.0710 Si            1 RES     
    1660 Si          19.3380    36.4260     9.9850 Si            1 RES     
    1661 O            6.0910    41.7390    14.4270 O             1 RES     
    1662 O           47.7060     8.7760     8.5610 O             1 RES     
    1663 O           16.0610     6.3310     7.6540 O             1 RES     
    1664 OS          40.2300    36.4090    13.8110 OS            1 RES     
    1665 Si           7.5970    15.8860     3.3550 Si            1 RES     
    1666 Si          33.3320    42.4600    10.1280 Si            1 RES     
    1667 Si          46.0100    36.0040     3.3990 Si            1 RES     
    1668 O           46.9380    40.5590     4.9240 O             1 RES     
    1669 Si          14.4050    18.2450     4.9420 Si            1 RES     
    1670 O           46.1040    11.4080     5.6420 O             1 RES     
    1671 O           27.3830     8.8200     6.7370 O             1 RES     
    1672 O           31.8700    15.0560     3.2500 O             1 RES     
    1673 Si          15.9070    10.0890     6.7220 Si            1 RES     
    1674 O           10.8390    15.5770    10.8400 O             1 RES     
    1675 Si           3.8790    23.8550     9.3030 Si            1 RES     
    1676 O           10.9570    21.5610     8.4690 O             1 RES     
    1677 Si           7.0870    27.4220    11.3940 Si            1 RES     
    1678 O           42.1170    20.9600    11.0440 O             1 RES     
    1679 O           14.6650    28.9330    13.6520 O             1 RES     
    1680 Si          15.6640    29.9960    13.2650 Si            1 RES     
    1681 O           41.2090     6.6220     7.2350 O             1 RES     
    1682 Si           3.2300    16.7320     5.8630 Si            1 RES     
    1683 O           25.0490    41.8660     6.4780 O             1 RES     
    1684 Si           1.2730    44.7730    10.5840 Si            1 RES     
    1685 O            2.6120    46.4420     7.0790 O             1 RES     
    1686 O           13.6390    49.8840    10.2120 O             1 RES     
    1687 O           30.6700    34.1810     9.2810 O             1 RES     
    1688 O            3.4830     3.6420    14.6700 O             1 RES     
    1689 Si          41.1270    42.6480     8.1450 Si            1 RES     
    1690 O           40.0150     6.7220    12.7820 O             1 RES     
    1691 O           46.5220    14.8410    13.6800 O             1 RES     
    1692 O           19.5030    37.4470    11.1780 O             1 RES     
    1693 O           40.1420    18.5980     7.4890 O             1 RES     
    1694 O            6.4810    45.2430    12.8770 O             1 RES     
    1695 O            3.6000    44.9390     4.7370 O             1 RES     
    1696 O           40.1310    32.9500    10.1810 O             1 RES     
    1697 O           44.1860    49.7900    14.2140 O             1 RES     
    1698 Si          26.6890    16.7210     3.0580 Si            1 RES     
    1699 O           23.2980    16.4810    11.5780 O             1 RES     
    1700 O            7.4210    33.3580     4.5400 O             1 RES     
    1701 Si          44.8280    48.4210    13.6520 Si            1 RES     
    1702 O           47.3600    32.4420     2.6270 O             1 RES     
    1703 O           38.3920    45.2230     3.4960 O             1 RES     
    1704 O            2.3880    18.0540     6.4230 O             1 RES     
    1705 O           25.3700    36.4550     2.4690 O             1 RES     
    1706 OS          22.7450    30.9570    14.5870 OS            1 RES     
    1707 O           33.4470    13.1420     3.1830 O             1 RES     
    1708 O           24.0410    23.1650    13.5520 O             1 RES     
    1709 OS          46.7590    44.2960    14.1190 OS            1 RES     
    1710 O           36.7380    34.8560     9.1230 O             1 RES     
    1711 O           43.6660    35.3340     8.4330 O             1 RES     
    1712 O           39.8860     2.2040    10.2160 O             1 RES     
    1713 O           49.6020    12.7850    13.2680 O             1 RES     
    1714 O           33.9400    24.2910     2.7330 O             1 RES     
    1715 O           11.1720    18.9820     5.3790 O             1 RES     
    1716 O           14.0480     9.3350     3.0620 O             1 RES     
    1717 OS          35.8400    18.1980    13.9900 OS            1 RES     
    1718 O           34.2480    35.0790     8.7640 O             1 RES     
    1719 OS           3.5890    41.3540    15.1300 OS            1 RES     
    1720 O           14.3800    26.3200    10.8220 O             1 RES     
    1721 OS          48.5540    26.5690    14.4960 OS            1 RES     
    1722 Si           5.3480    49.4170    12.7330 Si            1 RES     
    1723 OS          34.2900     4.8140    13.7120 OS            1 RES     
    1724 O           41.5300    11.3990     6.3670 O             1 RES     
    1725 Si          11.4050    22.6560     4.4670 Si            1 RES     
    1726 OS          38.6380    32.5650    14.3420 OS            1 RES     
    1727 OS          40.7220    14.0150    14.4760 OS            1 RES     
    1728 Si           5.4440    46.3220    12.6150 Si            1 RES     
    1729 O           47.9650     3.8760     8.0230 O             1 RES     
    1730 O           22.6100    24.2770     9.1200 O             1 RES     
    1731 O            8.7410     3.2920     5.2770 O             1 RES     
    1732 O           43.1120    13.3500    10.8740 O             1 RES     
    1733 O           40.3440    48.4660     7.4730 O             1 RES     
    1734 O            3.4810     4.3130    11.9250 O             1 RES     
    1735 O           15.4450    37.0720    13.3770 O             1 RES     
    1736 O           30.5520    32.6320    11.0970 O             1 RES     
    1737 O           14.9040    13.0700     7.7000 O             1 RES     
    1738 Si          43.4640    34.5120     4.1050 Si            1 RES     
    1739 O           37.2750    41.3190     6.3480 O             1 RES     
    1740 O           16.5790     8.1120     3.7590 O             1 RES     
    1741 O           44.9030    17.5790     9.8250 O             1 RES     
    1742 O           42.4170    23.6620    11.1840 O             1 RES     
    1743 Si          11.8210    19.6120     4.0960 Si            1 RES     
    1744 O            4.2290     4.2180     9.5200 O             1 RES     
    1745 O           11.9240     3.5670     7.9060 O             1 RES     
    1746 Si          23.2640    28.3340     4.5650 Si            1 RES     
    1747 Si          10.6550    15.6260     6.9070 Si            1 RES     
    1748 Si          16.6240    47.4700     4.8540 Si            1 RES     
    1749 O           42.4230    43.5150    11.6360 O             1 RES     
    1750 O           44.6300    13.0840     4.7050 O             1 RES     
    1751 O           24.8870    23.7760     8.7800 O             1 RES     
    1752 Si          44.1340    14.4970    10.5390 Si            1 RES     
    1753 O            1.7890    11.3740     9.7400 O             1 RES     
    1754 Si          36.3550    48.1240     7.1680 Si            1 RES     
    1755 O           10.2310    49.0210     4.5630 O             1 RES     
    1756 O           28.3610    24.1750     9.0730 O             1 RES     
    1757 OS           8.0270    42.6550    15.9740 OS            1 RES     
    1758 O           20.6590    43.6390     4.2780 O             1 RES     
    1759 Si          19.3750    41.1540     7.3020 Si            1 RES     
    1760 O           30.9560    11.5940     8.6360 O             1 RES     
    1761 O           18.8340     9.1030    13.2000 O             1 RES     
    1762 O           18.5960    17.9340    13.0090 O             1 RES     
    1763 O           46.4730     1.5150     3.5410 O             1 RES     
    1764 Si          18.1270    13.5640    13.2330 Si            1 RES     
    1765 O           12.2390    25.8070     3.0760 O             1 RES     
    1766 O           34.3740    21.7230     2.4900 O             1 RES     
    1767 O            7.1170    49.6020     8.2970 O             1 RES     
    1768 OS          11.0990    15.4880    15.8520 OS            1 RES     
    1769 Si          47.6450    44.0410    12.8520 Si            1 RES     
    1770 O            7.2630    40.2660     5.4760 O             1 RES     
    1771 Si           5.9150    39.6130     6.0160 Si            1 RES     
    1772 O            3.6420    48.2090     1.7190 O             1 RES     
    1773 Si           9.3260    30.2780     8.7720 Si            1 RES     
    1774 O           21.8550    12.2470     7.6560 O             1 RES     
    1775 Si          32.0220    45.5090     3.4310 Si            1 RES     
    1776 Si          26.3280    36.2830     3.8650 Si            1 RES     
    1777 Si          29.2960    49.2110     4.6370 Si            1 RES     
    1778 Si           9.8470    49.8200    11.0250 Si            1 RES     
    1779 Si           9.5920     8.9400    14.1330 Si            1 RES     
    1780 O           23.2350    37.5940     5.5630 O             1 RES     
    1781 O            4.4610     4.4630     6.6550 O             1 RES     
    1782 O           37.6840     4.5540     4.2990 O             1 RES     
    1783 O            8.1540    43.7040     6.2390 O             1 RES     
    1784 O           16.5850     3.8740     7.1990 O             1 RES     
    1785 Si          43.4070    14.0150     4.5790 Si            1 RES     
    1786 O           29.2980    38.8270     7.6790 O             1 RES     
    1787 O           29.3870    21.7350     9.2020 O             1 RES     
    1788 Si          19.1950    49.8120     3.6240 Si            1 RES     
    1789 O           38.6720    38.0910    11.0390 O             1 RES     
    1790 Si          37.7770    35.5230     8.0530 Si            1 RES     
    1791 O            0.8420    23.7000    11.6950 O             1 RES     
    1792 Si          45.3090    46.5390     8.6930 Si            1 RES     
    1793 O           40.1670    32.8790     5.9980 O             1 RES     
    1794 O           49.4920    12.2080     4.3130 O             1 RES     
    1795 Si          43.2470    18.1450     6.8110 Si            1 RES     
    1796 O            1.2610    45.9670     4.7330 O             1 RES     
    1797 O           20.5560     6.5140    11.2540 O             1 RES     
    1798 Si          46.4700    21.9070     5.5860 Si            1 RES     
    1799 O           33.7270     4.7470    11.2180 O             1 RES     
    1800 O           48.7680    39.6940    10.5490 O             1 RES     
    1801 Si           3.4020     1.0840     6.7640 Si            1 RES     
    1802 O           21.3330     1.8710    11.3530 O             1 RES     
    1803 O           35.5060    11.1090     6.4490 O             1 RES     
    1804 O           26.7580     4.1720     8.6430 O             1 RES     
    1805 O           44.5140    28.1680    12.7980 O             1 RES     
    1806 Si           5.8150    23.1590    13.7230 Si            1 RES     
    1807 O           37.1250     4.6340     6.7400 O             1 RES     
    1808 Si          42.0090     8.7670     3.2600 Si            1 RES     
    1809 Si          46.1000    12.5440     4.5270 Si            1 RES     
    1810 O           49.5030    40.8540    12.6370 O             1 RES     
    1811 O           11.7300    11.3630    10.8470 O             1 RES     
    1812 Si          10.5060     3.9990     8.3070 Si            1 RES     
    1813 O           26.4340    42.8610    11.3620 O             1 RES     
    1814 Si          45.5280    18.4290    12.9920 Si            1 RES     
    1815 O           10.2690    20.2770    12.7150 O             1 RES     
    1816 O            4.0880     6.5780     5.0410 O             1 RES     
    1817 Si           4.7960    45.1350     3.8250 Si            1 RES     
    1818 Si          17.2500    36.7620     5.3500 Si            1 RES     
    1819 O           22.6580    35.0170     8.1920 O             1 RES     
    1820 O            4.7760    11.3850     3.7570 O             1 RES     
    1821 Si           2.1730    30.1660    10.6390 Si            1 RES     
    1822 O           29.6660     9.5910    12.2180 O             1 RES     
    1823 Si           1.5830    19.4170     6.7290 Si            1 RES     
    1824 Si           4.1910    30.4610     4.9740 Si            1 RES     
    1825 O           18.7420    19.2920     3.6040 O             1 RES     
    1826 O           29.6860    44.8840    11.6080 O             1 RES     
    1827 Si          21.1900    42.2330     4.8640 Si            1 RES     
    1828 O           30.7800    20.5740     4.9990 O             1 RES     
    1829 O           19.1700    19.3410     6.1340 O             1 RES     
    1830 Si          21.9210     5.8130    11.6850 Si            1 RES     
    1831 O           30.8090    16.9810     1.4340 O             1 RES     
    1832 O           19.2280    34.6030     2.8800 O             1 RES     
    1833 Si           4.1090     5.0000     5.1770 Si            1 RES     
    1834 O            6.3600    18.8940     8.8740 O             1 RES     
    1835 O            6.2940     0.6990     3.4020 O             1 RES     
    1836 O           15.1280     3.2530    11.2180 O             1 RES     
    1837 Si          24.5940    16.9940    10.8350 Si            1 RES     
    1838 Si          12.2190    47.6710     7.2280 Si            1 RES     
    1839 Si          49.2660    27.9520    14.1410 Si            1 RES     
    1840 O           37.6340    43.1750     4.6860 O             1 RES     
    1841 O           40.8040     9.0420    13.7160 O             1 RES     
    1842 Si          27.3070    45.2360     8.2250 Si            1 RES     
    1843 O           33.9980    22.9060     7.6760 O             1 RES     
    1844 O            7.2550    30.0260    13.2260 O             1 RES     
    1845 OS          45.0770    29.4240    15.0810 OS            1 RES     
    1846 O           45.1190    37.2770     3.0810 O             1 RES     
    1847 O            6.8140    47.4990     9.5180 O             1 RES     
    1848 O           14.2680    43.1000     4.5660 O             1 RES     
    1849 O           41.9410    38.7310    11.1050 O             1 RES     
    1850 O            5.3760    40.2880     7.4140 O             1 RES     
    1851 O           40.1690    43.8500     4.6990 O             1 RES     
    1852 O           27.7100    40.7150     6.5120 O             1 RES     
    1853 O           40.9140    41.0570     8.2180 O             1 RES     
    1854 OS          34.1110    39.3100    14.9850 OS            1 RES     
    1855 O           30.0460    40.2740     5.7160 O             1 RES     
    1856 O           39.6660    27.1110    12.0460 O             1 RES     
    1857 O           17.3190    47.0070     3.5200 O             1 RES     
    1858 Si          32.9580     4.0070    10.1090 Si            1 RES     
    1859 OS          10.9230     3.7840    14.3840 OS            1 RES     
    1860 Si          34.8320    34.0840    12.5900 Si            1 RES     
    1861 O            7.6280    43.2180    13.5850 O             1 RES     
    1862 Si          47.7210    26.6370     7.6180 Si            1 RES     
    1863 O           30.9160    26.5840     3.7620 O             1 RES     
    1864 O           23.9220    42.3280    12.3240 O             1 RES     
    1865 O           36.9150    15.8830     8.6820 O             1 RES     
    1866 OS           6.4700    14.0980    14.5600 OS            1 RES     
    1867 O           21.1230    47.8380     9.4230 O             1 RES     
    1868 O           44.2260     1.4090     2.5910 O             1 RES     
    1869 O           21.3940    24.2170     4.6260 O             1 RES     
    1870 O           38.1040    25.3190    12.6240 O             1 RES     
    1871 Si          32.5640    11.8050     8.6730 Si            1 RES     
    1872 O           33.7820    18.0900     7.4940 O             1 RES     
    1873 O            9.2800    39.5730    11.9060 O             1 RES     
    1874 O            1.9720     1.2120     6.1930 O             1 RES     
    1875 O           46.1200    47.9080     8.9550 O             1 RES     
    1876 O           15.0400    45.0910     8.8960 O             1 RES     
    1877 O           40.8230    25.8370     1.9520 O             1 RES     
    1878 O            5.1570    33.7200     3.2020 O             1 RES     
    1879 Si          43.0790    47.3120    11.1950 Si            1 RES     
    1880 OS          38.3240     2.4550    14.5480 OS            1 RES     
    1881 O           21.8820    18.2290     2.1210 O             1 RES     
    1882 O            9.7870    41.1050     4.7360 O             1 RES     
    1883 O            6.1870    10.7460     5.5900 O             1 RES     
    1884 O           34.0590    49.7060     8.3830 O             1 RES     
    1885 O           46.9490    42.9200     4.2110 O             1 RES     
    1886 O           40.5380    39.4770     3.5280 O             1 RES     
    1887 O           25.0980    48.5330     8.5770 O             1 RES     
    1888 Si          33.8420    45.4100     9.7360 Si            1 RES     
    1889 O            1.0700    29.6330     2.7850 O             1 RES     
    1890 O           31.7480    46.3360     4.7500 O             1 RES     
    1891 O           46.7180    43.3970    11.7750 O             1 RES     
    1892 O           45.9950    25.4950     4.1030 O             1 RES     
    1893 Si          24.4620    20.2280     4.2260 Si            1 RES     
    1894 O            1.2180    40.0580    10.7650 O             1 RES     
    1895 O           49.7400    19.9800    10.4620 O             1 RES     
    1896 O           36.5850     7.6310    10.1330 O             1 RES     
    1897 O           32.3760    49.8430     3.1810 O             1 RES     
    1898 O           29.5430    49.3210    12.4220 O             1 RES     
    1899 Si          38.2170    48.4220    11.3390 Si            1 RES     
    1900 O           27.3500    36.5040    12.2680 O             1 RES     
    1901 O           21.5430    31.5880     9.9880 O             1 RES     
    1902 O           34.2360    27.1980    10.1070 O             1 RES     
    1903 Si          28.9930     5.7800     3.1930 Si            1 RES     
    1904 O           16.7080    12.7920     9.7260 O             1 RES     
    1905 Si          30.0820    44.3490    13.0340 Si            1 RES     
    1906 O            8.3120    28.2320    12.0050 O             1 RES     
    1907 Si          17.5100    25.8340    12.3960 Si            1 RES     
    1908 O           13.1120    45.4360     5.0930 O             1 RES     
    1909 O            8.6580    38.8890     7.8230 O             1 RES     
    1910 O           25.4570    30.2240     5.8030 O             1 RES     
    1911 O           15.4610    30.9980    12.0200 O             1 RES     
    1912 O           20.9830    17.0100    12.4260 O             1 RES     
    1913 O            2.5790    23.0990     5.9300 O             1 RES     
    1914 Si          23.6140    20.2550     7.2040 Si            1 RES     
    1915 O           12.8580    28.5260    10.3000 O             1 RES     
    1916 Si          49.4750    31.2930     5.8120 Si            1 RES     
    1917 O           30.2560     7.0160    13.1400 O             1 RES     
    1918 O            1.0510    42.4950     2.7780 O             1 RES     
    1919 O           47.2880    39.8280     7.4040 O             1 RES     
    1920 Si          18.5590    46.0310     6.8330 Si            1 RES     
    1921 Si          34.5940    12.1700     2.8700 Si            1 RES     
    1922 O            4.8720     2.7370    12.9050 O             1 RES     
    1923 Si          22.8780    32.3050    10.6540 Si            1 RES     
    1924 O           40.5280    15.8970     7.9670 O             1 RES     
    1925 O           49.8640    21.4210    12.6100 O             1 RES     
    1926 Si          42.2390     3.0160     7.4680 Si            1 RES     
    1927 O            3.7080    32.8340    13.4430 O             1 RES     
    1928 O            2.5300    34.7780    12.6110 O             1 RES     
    1929 Si           2.4450     7.5800    14.4700 Si            1 RES     
    1930 O           49.6160    16.5430    11.2260 O             1 RES     
    1931 Si          27.6710    25.6370    12.2540 Si            1 RES     
    1932 O            9.4760    25.8230     3.2250 O             1 RES     
    1933 Si          13.1140    47.5690    13.2110 Si            1 RES     
    1934 O           16.1200    18.1080    12.2320 O             1 RES     
    1935 OS          29.6160    49.4550    15.2350 OS            1 RES     
    1936 Si           2.5000    36.8800     8.8330 Si            1 RES     
    1937 O           10.4580    19.5140    10.2270 O             1 RES     
    1938 O           31.5910     0.4320    11.3760 O             1 RES     
    1939 O            6.2520     3.0190     2.5250 O             1 RES     
    1940 O           23.7620    20.4510     5.6460 O             1 RES     
    1941 O            6.4440    28.1370     2.6900 O             1 RES     
    1942 Si          32.9600    16.8100     7.8490 Si            1 RES     
    1943 O           45.8420    12.2230     2.9200 O             1 RES     
    1944 Si          27.7260    28.2960    13.6810 Si            1 RES     
    1945 Si          32.2490    34.8590     5.3880 Si            1 RES     
    1946 O           43.5730    19.3770     5.9410 O             1 RES     
    1947 O           41.4800    11.2340    10.4330 O             1 RES     
    1948 O           27.1300    19.9590    11.9050 O             1 RES     
    1949 Si           6.3650    38.1370    13.4510 Si            1 RES     
    1950 O           15.5340    25.4820     8.9350 O             1 RES     
    1951 O           28.6790    23.3450     2.1370 O             1 RES     
    1952 O           44.5210    17.3100     6.5560 O             1 RES     
    1953 O           43.6050    30.4300    13.6700 O             1 RES     
    1954 O           13.6740    44.1950     7.0730 O             1 RES     
    1955 O           14.3730    14.0060    12.1490 O             1 RES     
    1956 O           15.2320    24.6720     6.5390 O             1 RES     
    1957 O           10.0290     5.5380     8.3100 O             1 RES     
    1958 Si          25.5300    22.6310     7.8570 Si            1 RES     
    1959 O            2.1790    47.9090     3.7720 O             1 RES     
    1960 Si          28.9950    23.7520     5.4270 Si            1 RES     
    1961 Si           3.1650    10.6790    10.1300 Si            1 RES     
    1962 O           16.2890    28.8230     5.1010 O             1 RES     
    1963 O           17.3520    32.1840     7.5460 O             1 RES     
    1964 Si          43.9500    35.9760    14.5880 Si            1 RES     
    1965 O           34.8070    39.4040     4.0380 O             1 RES     
    1966 Si          36.5260    42.5080     5.6500 Si            1 RES     
    1967 O           19.9540     6.7290     6.2850 O             1 RES     
    1968 OS           4.6190    12.9200    13.5930 OS            1 RES     
    1969 O            2.3390     4.1420     7.6210 O             1 RES     
    1970 O           41.9660    30.8780     9.8350 O             1 RES     
    1971 Si          35.8660    49.2400     2.9200 Si            1 RES     
    1972 O            8.7220    18.7280     5.6150 O             1 RES     
    1973 OS          14.6250     3.0450    13.8430 OS            1 RES     
    1974 Si          35.9630    37.4350     6.4760 Si            1 RES     
    1975 Si           5.4570    15.2780     7.5350 Si            1 RES     
    1976 O           27.9400    14.5790    12.6080 O             1 RES     
    1977 OS          26.5330     4.8940    15.5000 OS            1 RES     
    1978 Si          43.3240    41.8310     3.2860 Si            1 RES     
    1979 Si          43.4030    46.2690     6.1900 Si            1 RES     
    1980 Si          29.6460    11.3040     7.7860 Si            1 RES     
    1981 O           36.5260    14.3320    10.5830 O             1 RES     
    1982 O           36.0060    43.7990     6.4990 O             1 RES     
    1983 Si           8.0120    14.4310     6.0600 Si            1 RES     
    1984 Si           8.8960    23.5080    13.6690 Si            1 RES     
    1985 O           38.2490    18.3300     8.8490 O             1 RES     
    1986 O           43.7310    19.8350     3.3930 O             1 RES     
    1987 O           27.6680    35.9060     3.0870 O             1 RES     
    1988 O            0.4900    43.5340    10.0180 O             1 RES     
    1989 O           13.6420    35.4190     6.9260 O             1 RES     
    1990 O           12.7540    11.4440     2.6230 O             1 RES     
    1991 Si          12.9910    27.1330    10.9580 Si            1 RES     
    1992 Si          23.8630    45.8620    11.9930 Si            1 RES     
    1993 Si          25.8870     0.5160    13.8480 Si            1 RES     
    1994 O           22.2970    48.3590     5.3120 O             1 RES     
    1995 Si          25.9610     5.2320     7.8690 Si            1 RES     
    1996 O           24.2940     1.8930     2.7680 O             1 RES     
    1997 O           16.4760    37.7040     4.3180 O             1 RES     
    1998 O           22.5200    49.9330    12.4180 O             1 RES     
    1999 Si          37.4340    32.5980    13.1870 Si            1 RES     
    2000 O           38.9960     6.4630     3.1540 O             1 RES     
    2001 Si          10.7150    31.6810    12.0640 Si            1 RES     
    2002 O           34.5510    35.6090    12.8760 O             1 RES     
    2003 Si          40.2900    17.2020     6.6710 Si            1 RES     
    2004 O            0.1750    17.8730     2.5890 O             1 RES     
    2005 O           25.4540    16.6890     4.0590 O             1 RES     
    2006 O           21.2320    41.1290     3.7910 O             1 RES     
    2007 O           47.9910    20.1320     7.5240 O             1 RES     
    2008 O           28.9260     1.4310     7.6320 O             1 RES     
    2009 Si          24.1400     6.9550     9.6920 Si            1 RES     
    2010 Si          10.0460    45.8610    12.3140 Si            1 RES     
    2011 O           19.5920    46.6460     7.8140 O             1 RES     
    2012 O           49.2820    13.9790     6.4470 O             1 RES     
    2013 Si          32.7610    30.8370     8.0090 Si            1 RES     
    2014 O           36.0280    19.1090    11.6440 O             1 RES     
    2015 O           25.9280    36.2850     9.9660 O             1 RES     
    2016 OS          16.9410     1.5030    13.9450 OS            1 RES     
    2017 Si           8.0890     9.1650     3.4690 Si            1 RES     
    2018 O            7.4840    43.0870     8.6110 O             1 RES     
    2019 Si          20.1150    33.9210    14.1370 Si            1 RES     
    2020 O            1.1320    27.7500     4.4110 O             1 RES     
    2021 Si          41.8280    48.1740     7.9800 Si            1 RES     
    2022 Si          38.2600     9.3290     6.6120 Si            1 RES     
    2023 O           40.4440    45.0910    11.7210 O             1 RES     
    2024 O           22.1720    28.9880    12.0870 O             1 RES     
    2025 O           22.5850    42.3680     5.5940 O             1 RES     
    2026 O            6.3640     0.9860    13.3560 O             1 RES     
    2027 O           21.1010    18.6210     4.3820 O             1 RES     
    2028 OS          40.5240    10.4340    15.8200 OS            1 RES     
    2029 O           28.6020    25.5380    10.9880 O             1 RES     
    2030 Si          45.1290    16.0420     5.8950 Si            1 RES     
    2031 O           48.0560    45.4530    12.2910 O             1 RES     
    2032 O           14.1680    24.4350     1.8690 O             1 RES     
    2033 O           13.8490    13.9900     5.4690 O             1 RES     
    2034 Si          41.6930    22.5180     5.2840 Si            1 RES     
    2035 O            7.7250    10.1780     9.7690 O             1 RES     
    2036 O           15.1780    41.4640     6.7210 O             1 RES     
    2037 O            0.5540    24.3760     6.7230 O             1 RES     
    2038 Si          38.2510    39.6490    11.1770 Si            1 RES     
    2039 Si          16.6180    37.7820    14.0810 Si            1 RES     
    2040 Si           2.9550    34.2100    14.0020 Si            1 RES     
    2041 O           13.2470     4.9020     3.6700 O             1 RES     
    2042 OS          11.5390    20.6390    15.1320 OS            1 RES     
    2043 Si          17.6370    21.3620    13.0510 Si            1 RES     
    2044 O           37.0490     8.3670     5.3170 O             1 RES     
    2045 O           18.5340     9.5700     4.7320 O             1 RES     
    2046 O           28.1010     7.5450     8.9600 O             1 RES     
    2047 O            4.4450    49.1510     3.9220 O             1 RES     
    2048 Si          34.1500     0.2340     6.9910 Si            1 RES     
    2049 O           28.9690     0.5530     5.4100 O             1 RES     
    2050 O           25.2910    45.2430    11.4690 O             1 RES     
    2051 O           48.5810     0.0460    12.8100 O             1 RES     
    2052 O            9.1010    41.7060     7.7430 O             1 RES     
    2053 OS          23.3950    15.5370    13.9790 OS            1 RES     
    2054 OS          46.7240    33.2900    14.4010 OS            1 RES     
    2055 O           38.2860    19.0310    13.0940 O             1 RES     
    2056 O           48.7460    16.5420    13.5350 O             1 RES     
    2057 O            2.8580    31.2520    11.5010 O             1 RES     
    2058 O           28.9490    32.9340     4.0500 O             1 RES     
    2059 Si          46.1820    13.6870    12.6920 Si            1 RES     
    2060 O           22.4060    27.0210     4.5720 O             1 RES     
    2061 O           32.4200    22.4380     3.8130 O             1 RES     
    2062 Si          19.3320    37.9810     7.2560 Si            1 RES     
    2063 O           13.0730    33.9140    13.3170 O             1 RES     
    2064 O            1.1850    49.5760    12.8470 O             1 RES     
    2065 Si          23.2730    36.9670    11.8210 Si            1 RES     
    2066 O            2.9850    17.9980    14.8750 O             1 RES     
    2067 O           25.0460    37.2640     7.3890 O             1 RES     
    2068 O           14.9480    19.2350     6.0250 O             1 RES     
    2069 O           20.8760    30.5270     2.4170 O             1 RES     
    2070 Si          47.2880    48.5670     9.7450 Si            1 RES     
    2071 O            4.8430    38.0640    13.1040 O             1 RES     
    2072 O           29.7890     4.3610    13.8270 O             1 RES     
    2073 Si          39.1580     5.4970    12.3780 Si            1 RES     
    2074 O            6.1050    35.7080     4.4190 O             1 RES     
    2075 O           36.5980     2.3970    12.3880 O             1 RES     
    2076 Si          15.4760    20.6070     6.7620 Si            1 RES     
    2077 O           14.5900    33.3570    11.3350 O             1 RES     
    2078 Si          17.0470     0.9500    12.4370 Si            1 RES     
    2079 O            2.3170     7.2640     8.3850 O             1 RES     
    2080 O            9.0200    36.3940     7.3610 O             1 RES     
    2081 O            0.4130    36.1710    11.9020 O             1 RES     
    2082 O            7.3160    17.2230    10.7510 O             1 RES     
    2083 OS          41.2620    38.5490    15.0810 OS            1 RES     
    2084 O           48.3180    49.4250     8.8890 O             1 RES     
    2085 Si          46.3050     7.2390    11.5810 Si            1 RES     
    2086 Si           0.9870    22.4530    12.7220 Si            1 RES     
    2087 O           12.6550    43.2920    11.9990 O             1 RES     
    2088 O            8.1300     3.5870    11.1090 O             1 RES     
    2089 OS          43.5260     5.4500    13.6310 OS            1 RES     
    2090 O           12.0960     9.1050     6.9030 O             1 RES     
    2091 Si          34.7290    19.2200    10.7460 Si            1 RES     
    2092 O            9.8690    36.6850     4.6570 O             1 RES     
    2093 O            6.2950    49.5440    10.8970 O             1 RES     
    2094 O           41.9290    17.3280     6.3350 O             1 RES     
    2095 O            9.4350    46.6280     4.5100 O             1 RES     
    2096 O           40.4240     8.4670     2.8820 O             1 RES     
    2097 O           16.1310    39.2250    14.1870 O             1 RES     
    2098 Si          39.6220    19.8540    13.4610 Si            1 RES     
    2099 Si          26.2590     7.5200    11.9100 Si            1 RES     
    2100 O           32.8230    46.4750     9.3520 O             1 RES     
    2101 Si           6.6160    22.6860     3.5980 Si            1 RES     
    2102 O           27.6590    26.8770     8.9330 O             1 RES     
    2103 Si          15.6720    43.1520     3.8470 Si            1 RES     
    2104 O           44.8030    25.8370     6.1180 O             1 RES     
    2105 O           12.3800     0.3960     4.1410 O             1 RES     
@<TRIPOS>BOND
       1     1925     2086 1
       2     1457      688 1
       3     1650      245 1
       4      136      537 1
       5     1122      289 1
       6     1934     1605 1
       7      700     1018 1
       8     1741     1024 1
       9     1119      209 1
      10     1155      876 1
      11     1258        5 1
      12      987      335 1
      13     1368      250 1
      14     1864      689 1
      15     1785     1179 1
      16     1681     1374 1
      17     1823     1117 1
      18     1980      195 1
      19      293      294 1
      20       61      501 1
      21     1837      200 1
      22     1287     1068 1
      23      911      290 1
      24      922      134 1
      25     1691     2059 1
      26     1753     1961 1
      27     1361      115 1
      28      989     1042 1
      29     1335      677 1
      30      786      443 1
      31     1767      899 1
      32     1458      258 1
      33     1339     1493 1
      34     1390     1453 1
      35      856      897 1
      36     1186     1320 1
      37     1660     1074 1
      38      301      396 1
      39     1255     1529 1
      40     1775      107 1
      41     1984      532 1
      42      197      247 1
      43     1778      770 1
      44     1239      745 1
      45      159      397 1
      46     1699     1837 1
      47     1119     1095 1
      48     1585       66 1
      49     1375      549 1
      50      529      556 1
      51     1513      210 1
      52     1283     1521 1
      53     1198     1249 1
      54      652      976 1
      55     1118      543 1
      56     1649      534 1
      57     2030      167 1
      58      437      487 1
      59     1963      133 1
      60      634      203 1
      61      944      152 1
      62     2021      423 1
      63     1571      122 1
      64     1928      978 1
      65     1783      562 1
      66     1570      198 1
      67      713      975 1
      68     1038      535 1
      69     1920      650 1
      70     1949     2071 1
      71      698      988 1
      72     1695     1817 1
      73     1047       32 1
      74     1281      187 1
      75     1499      232 1
      76       83      499 1
      77     1800     1181 1
      78      583      960 1
      79      365       10 1
      80     1754     1381 1
      81     1879      502 1
      82     1044      367 1
      83     1366      186 1
      84     1208       88 1
      85     1114     1024 1
      86     1401      599 1
      87     1612       68 1
      88     1498      609 1
      89     1178      896 1
      90     2010      335 1
      91     2101      607 1
      92     1553      836 1
      93      675      379 1
      94     1892      756 1
      95     1711      578 1
      96     1731      379 1
      97     1752      462 1
      98     1698     2005 1
      99     1643      380 1
     100     1872     1942 1
     101     2066     1534 1
     102     1984     1006 1
     103     1912       27 1
     104     1124     1521 1
     105     1851      699 1
     106     1271      483 1
     107     1899      479 1
     108     1708     1516 1
     109      643      311 1
     110     1759      999 1
     111     1173      427 1
     112     1597      579 1
     113     1147     1028 1
     114     2091     1194 1
     115     2053      624 1
     116     1138      721 1
     117     1461      956 1
     118     1598      204 1
     119     1126     1189 1
     120     1601     1088 1
     121     1815      862 1
     122     1303      112 1
     123     1678      850 1
     124     1675      460 1
     125     1822      601 1
     126     2105     1279 1
     127     1871     1555 1
     128     1798      996 1
     129     1434      261 1
     130     1579      545 1
     131      684      202 1
     132      972      259 1
     133     1378      109 1
     134     1313      256 1
     135     1404      570 1
     136     1656     1071 1
     137     1593     1053 1
     138     1993     1466 1
     139     1664     1011 1
     140     1078      487 1
     141     1783      781 1
     142     1652     2080 1
     143     1777      491 1
     144     1234      351 1
     145     1348      886 1
     146     1452     1570 1
     147     1921     1072 1
     148     1310       14 1
     149     1655     1926 1
     150     1039      241 1
     151     1633      102 1
     152      972      327 1
     153      646      374 1
     154     1936      399 1
     155     1728      506 1
     156     1869     1509 1
     157     2008      345 1
     158     1145      276 1
     159     1473      250 1
     160     1149      682 1
     161     1465      848 1
     162     1239     1248 1
     163      181       20 1
     164      621      392 1
     165     1521      957 1
     166     1974      861 1
     167     1422      343 1
     168     1326      689 1
     169     1552      135 1
     170     1205      461 1
     171     1628     1631 1
     172      231      480 1
     173     2007      336 1
     174     1138      773 1
     175     1686      161 1
     176      707      376 1
     177      748      185 1
     178     1155       59 1
     179      895      367 1
     180     1520      724 1
     181     2076     1429 1
     182      865      220 1
     183     1983      286 1
     184     1649      931 1
     185      396      525 1
     186     1722     2026 1
     187     2046      673 1
     188     1171      674 1
     189     1798     1250 1
     190     1670      579 1
     191     1291     1613 1
     192     1790     1056 1
     193      612      984 1
     194     1197     1086 1
     195      896      973 1
     196     1158     1023 1
     197      630      463 1
     198     1651     1598 1
     199     1907      680 1
     200     1738       55 1
     201     1792      412 1
     202     1206      961 1
     203     2072      466 1
     204     1339     1477 1
     205     1420      905 1
     206      834      393 1
     207      153      292 1
     208     1621      469 1
     209     1716     1445 1
     210      617      789 1
     211     1775     1455 1
     212     1534      622 1
     213     2036     1632 1
     214       90      215 1
     215     1751      955 1
     216     1066      552 1
     217     1413      932 1
     218     1238       57 1
     219     1674      499 1
     220     1231     1611 1
     221     1379     1489 1
     222     1888     1220 1
     223     1383     1037 1
     224     2059      418 1
     225     1165     1079 1
     226     1320      540 1
     227      332      393 1
     228     1576      231 1
     229     1134      965 1
     230     1745     1272 1
     231     2043      485 1
     232     1600      444 1
     233     1516      588 1
     234     1759      903 1
     235     1828     1552 1
     236     1278      894 1
     237     1563      456 1
     238     1244     1460 1
     239     1762     1605 1
     240      227      282 1
     241     1662      197 1
     242     1337      665 1
     243     1628     1060 1
     244     1914     1046 1
     245     1079      278 1
     246      571      972 1
     247     1356       80 1
     248     2098      142 1
     249      741     1016 1
     250      124      367 1
     251     2087     1442 1
     252     1975      119 1
     253     1824      490 1
     254     1284      570 1
     255      663      684 1
     256     1112     1172 1
     257     2008     1348 1
     258      233      390 1
     259      742      744 1
     260     1816     1833 1
     261     1488      363 1
     262      621      550 1
     263     1863     1598 1
     264      711      837 1
     265      717     1002 1
     266     1313      781 1
     267     1618      366 1
     268     2026     1506 1
     269      611      184 1
     270     1643     1395 1
     271     1631      541 1
     272     1037      117 1
     273     1641      761 1
     274       96        6 1
     275     1666       93 1
     276     1113     1056 1
     277     1645      751 1
     278     1339       42 1
     279     1475       77 1
     280     1412      813 1
     281     1011      538 1
     282     1701     1334 1
     283     1203      495 1
     284     1959      398 1
     285     1339      777 1
     286     1975      196 1
     287     1146      327 1
     288     1933     1354 1
     289      149      217 1
     290     1202      322 1
     291     1564      173 1
     292     1688     1162 1
     293      640      428 1
     294     1730      356 1
     295     1288      831 1
     296     1376      870 1
     297     1464      949 1
     298      106      379 1
     299     1418      895 1
     300     1933      839 1
     301     1692      977 1
     302     1564     1040 1
     303     1222     1437 1
     304     2019     1548 1
     305     1128      642 1
     306      664      139 1
     307     1382     1464 1
     308     1682      196 1
     309     1984      867 1
     310     1942        6 1
     311       85      428 1
     312      600      688 1
     313     1826     1905 1
     314      210      252 1
     315     2007     1106 1
     316     1204     1622 1
     317      870       46 1
     318      780      547 1
     319     1057      368 1
     320     1108     1022 1
     321      802      157 1
     322      326      444 1
     323     1779     1518 1
     324      938      244 1
     325      658     1057 1
     326     1672     1203 1
     327     1793      520 1
     328     1993      888 1
     329       53      225 1
     330     2054      344 1
     331     2014      191 1
     332     1461      828 1
     333     1758       95 1
     334     2070     2084 1
     335     1304      169 1
     336     2006     1098 1
     337      762      359 1
     338     1834      929 1
     339     1761      816 1
     340     1431      962 1
     341     1801     1874 1
     342     1187       51 1
     343      181      189 1
     344     1587      870 1
     345     1648     1513 1
     346     1592      299 1
     347     1749     1118 1
     348     1920     1621 1
     349     1193      269 1
     350     1116       88 1
     351     2065     1286 1
     352     1882     1145 1
     353      878     1063 1
     354      621       83 1
     355     1792      651 1
     356     1923      192 1
     357      843      950 1
     358     1688     1722 1
     359     1700       31 1
     360     1720     1991 1
     361     1976      140 1
     362     1683      151 1
     363     1319      882 1
     364     1139     1192 1
     365     1578      638 1
     366     1685     1155 1
     367      747      193 1
     368     1849     1390 1
     369      844       91 1
     370     1201      592 1
     371     1901     1923 1
     372     1603      838 1
     373     1379      665 1
     374      809      403 1
     375      929      119 1
     376     1914     1940 1
     377     1378      530 1
     378     1209      748 1
     379      580      143 1
     380      551       15 1
     381     1105      176 1
     382     1329      871 1
     383     1680     1911 1
     384     1575      156 1
     385      782      172 1
     386      990     1005 1
     387     1279      880 1
     388     1953      763 1
     389     1502      762 1
     390      815      244 1
     391     1283       27 1
     392     1753      837 1
     393     1133     1037 1
     394     1820     1514 1
     395     1213       76 1
     396     1594     1047 1
     397     2085      799 1
     398      272      340 1
     399     1183     1568 1
     400     1674      515 1
     401     1607      371 1
     402      801      937 1
     403     1653      294 1
     404     1810      625 1
     405      512      521 1
     406     1125      517 1
     407     1431      442 1
     408     1232     1556 1
     409      791      967 1
     410     1823      740 1
     411     2067      130 1
     412     1342     1483 1
     413     1051      175 1
     414     1523      431 1
     415     1752      269 1
     416     1813      840 1
     417     1554      558 1
     418     2030      110 1
     419     2089      661 1
     420     1323      359 1
     421     1413       69 1
     422     2081      902 1
     423      715      229 1
     424     1665      304 1
     425       40       18 1
     426      616      329 1
     427      985      386 1
     428     1176      494 1
     429     1394      108 1
     430      693     1068 1
     431     1657     1780 1
     432     1178     1203 1
     433      239      459 1
     434     1390       77 1
     435     1792     1338 1
     436     1505     1630 1
     437     1401     1031 1
     438     1008      159 1
     439     1153     1059 1
     440     1747      286 1
     441     1773      656 1
     442     1896      435 1
     443     1352      245 1
     444     1729      920 1
     445     1463      314 1
     446     1415     1015 1
     447     1143      514 1
     448     1673     1197 1
     449     1501     1101 1
     450     1678      725 1
     451     1577      639 1
     452     1710      923 1
     453      771      281 1
     454      849      168 1
     455      603      718 1
     456     1879      651 1
     457     1350     1566 1
     458     1870      290 1
     459     1811     1329 1
     460     1547     1075 1
     461     1652       81 1
     462      967      440 1
     463     1689      449 1
     464      183      436 1
     465      118      362 1
     466     1029       70 1
     467     1482      625 1
     468      822      471 1
     469     1712      762 1
     470     1926      618 1
     471     1978     1009 1
     472     1441      457 1
     473     1217     1050 1
     474      315      330 1
     475     1838      854 1
     476      710      285 1
     477      752     1076 1
     478     2078      759 1
     479       99      473 1
     480     1818      339 1
     481     1246     1010 1
     482     1799     1858 1
     483     1404     1484 1
     484     1640       40 1
     485     1561      975 1
     486     1538      913 1
     487     1400       69 1
     488     1371     1083 1
     489     1779     1408 1
     490     1774     1228 1
     491     1520      526 1
     492     1823     1259 1
     493     1349     1470 1
     494       78      568 1
     495     1128      432 1
     496     1290      312 1
     497     1314     1588 1
     498      768      373 1
     499     1266        7 1
     500      957     1087 1
     501     2071     1263 1
     502      783     1071 1
     503     1652     2092 1
     504     2034      737 1
     505     1724     1631 1
     506     1771     1347 1
     507      268       21 1
     508     1545      220 1
     509     1689     1013 1
     510      661      799 1
     511     1781     1261 1
     512     1986      916 1
     513      775        3 1
     514      248      430 1
     515     1785      110 1
     516     1759     1027 1
     517     2021      267 1
     518     1611      535 1
     519     1967      244 1
     520      604     1003 1
     521     1224     1016 1
     522      851      563 1
     523     1093      364 1
     524     1288       96 1
     525      235      554 1
     526     1148     1539 1
     527     1821     2057 1
     528     2052     1467 1
     529     1960     1444 1
     530     1379       19 1
     531     2050      840 1
     532     1957      800 1
     533     1151     1051 1
     534     1930     1004 1
     535     1127     1279 1
     536     1840      338 1
     537     1370     1059 1
     538     1718     1322 1
     539     1024      303 1
     540     1860     1396 1
     541      471      553 1
     542     2059      370 1
     543      878      495 1
     544     1992     1417 1
     545     2034     1221 1
     546     1274      284 1
     547     1149     1579 1
     548      691      314 1
     549     1916       52 1
     550     2035      406 1
     551     2080     1135 1
     552     1311      897 1
     553     1931      291 1
     554     1133      279 1
     555     1862      302 1
     556      296      553 1
     557     1358     1470 1
     558     1004       39 1
     559      756      302 1
     560     1764      383 1
     561      687      457 1
     562     1341      684 1
     563     1476      441 1
     564      894        4 1
     565     1807      432 1
     566     1237     1632 1
     567      615      432 1
     568     1000      214 1
     569      574       45 1
     570     1513      177 1
     571     1760     1871 1
     572     1254      798 1
     573      671      719 1
     574     1605     1036 1
     575     1992      363 1
     576      913     1070 1
     577      260      414 1
     578     1762       27 1
     579      594       34 1
     580     1376      947 1
     581     1966     1982 1
     582     1119      165 1
     583     1556      505 1
     584     1896      189 1
     585     1570      565 1
     586     1720      225 1
     587     1023      464 1
     588     1539      594 1
     589     1949     1370 1
     590     1795     2094 1
     591     1051      318 1
     592      629      307 1
     593     1936     1524 1
     594      889      373 1
     595     1936      389 1
     596     1426      945 1
     597     1812     1957 1
     598     1928     2040 1
     599      626      331 1
     600      585      208 1
     601      162      391 1
     602     1251      200 1
     603      639      885 1
     604     1839      183 1
     605     1145     1629 1
     606      305      455 1
     607     1869      146 1
     608     1970     1425 1
     609     1893      229 1
     610      714      260 1
     611       73      222 1
     612       60      330 1
     613      624      859 1
     614     1827      999 1
     615     1755      853 1
     616     1971     1064 1
     617     1988      813 1
     618     1983      716 1
     619     2097      709 1
     620     1990      934 1
     621     1862      219 1
     622     1926     1200 1
     623     1860     2002 1
     624     2019     1307 1
     625     1156      520 1
     626     1108      405 1
     627      987       75 1
     628     1200       45 1
     629     1323      317 1
     630      609      170 1
     631     1417     1613 1
     632      680     1096 1
     633     1130      706 1
     634     1617      787 1
     635      287      565 1
     636      921      252 1
     637     1613       72 1
     638     1657     1025 1
     639     1697      575 1
     640     1319      312 1
     641       43      274 1
     642     1190     1322 1
     643     1559      190 1
     644     1331      610 1
     645     1106      608 1
     646     1942     1063 1
     647     1903     1551 1
     648     1830     1574 1
     649     1748      341 1
     650     1316       63 1
     651     1884     2048 1
     652     1106       49 1
     653     2013      352 1
     654     1885     1071 1
     655       38       68 1
     656     1168     1085 1
     657     2009     1253 1
     658     2003     1437 1
     659       94      404 1
     660     1683      361 1
     661     1257      268 1
     662     1813       48 1
     663     1746     2060 1
     664     1360     1431 1
     665      234       27 1
     666     1043      436 1
     667     1474      193 1
     668     1165      694 1
     669     1951      894 1
     670     1546      520 1
     671     1937      862 1
     672     1829      521 1
     673     1289      604 1
     674      835      902 1
     675     1999      953 1
     676     1924     2003 1
     677     1801     1225 1
     678     1684      791 1
     679     1354      476 1
     680     1268     1272 1
     681     1337      265 1
     682     1661       23 1
     683     1925     1196 1
     684     1290      550 1
     685     1528      763 1
     686      575      317 1
     687     1693      100 1
     688     1622      591 1
     689     1156     1526 1
     690     1947      596 1
     691     1399      990 1
     692     1445      847 1
     693     1251     1561 1
     694      821      862 1
     695     1984      203 1
     696      617       91 1
     697     1995      912 1
     698      611     1004 1
     699     1107     1271 1
     700      626      464 1
     701       65      305 1
     702     1575      832 1
     703      851      909 1
     704     1510      105 1
     705     1609      328 1
     706     1876      279 1
     707     1915      208 1
     708      744       67 1
     709     1232      268 1
     710     2033      609 1
     711     1123     1374 1
     712     2038     1540 1
     713      984      281 1
     714     1549      907 1
     715     1372       82 1
     716     1020      498 1
     717      681     1008 1
     718     1684     1988 1
     719       32      362 1
     720     1998     1305 1
     721      663      373 1
     722     1807       20 1
     723     2075      597 1
     724     1773     1537 1
     725     1438      845 1
     726     1398     1399 1
     727      765      465 1
     728     1995      985 1
     729     2101     1616 1
     730     1155     1440 1
     731     1725      869 1
     732      815      554 1
     733     2055      191 1
     734     2057     1166 1
     735      596     1039 1
     736     2013     1419 1
     737      707      956 1
     738     1908     1295 1
     739     1669      170 1
     740     1080      150 1
     741     1322      416 1
     742     2023     1118 1
     743     1458     1562 1
     744      573      282 1
     745     1769      240 1
     746     1937      784 1
     747      881      334 1
     748      790      381 1
     749     1860      780 1
     750      258        1 1
     751     2034     1033 1
     752      769      387 1
     753     1093      481 1
     754      902      437 1
     755       48      158 1
     756     1947     1359 1
     757      937      202 1
     758     1281      508 1
     759     1729     1231 1
     760      778       44 1
     761      642      536 1
     762     1784      301 1
     763     1614      257 1
     764      977      227 1
     765     1419      686 1
     766      583      657 1
     767     1451      305 1
     768     1595      963 1
     769      600       86 1
     770     1669     2068 1
     771      143      255 1
     772      951     1001 1
     773     1659     1206 1
     774     1398     1531 1
     775     2098     1095 1
     776     1315     1068 1
     777     2073     1247 1
     778     1356      903 1
     779       73       17 1
     780       73      126 1
     781     1258     1552 1
     782      750      840 1
     783     1300      712 1
     784     1257     1481 1
     785       66      107 1
     786     1431      127 1
     787     2085      582 1
     788     1456      683 1
     789     1771     1850 1
     790     1865      349 1
     791     2048      804 1
     792     1573      970 1
     793     1533      814 1
     794      595      951 1
     795     1446      292 1
     796     1833     1386 1
     797     1599      384 1
     798      609      320 1
     799     1832     1465 1
     800      670      127 1
     801     1320      865 1
     802     1808     1091 1
     803     1305     1463 1
     804     1317     1029 1
     805      744      221 1
     806     1405      112 1
     807     1944     1216 1
     808     1642      673 1
     809     1057      511 1
     810     2085     1388 1
     811     1146      713 1
     812     1911      890 1
     813     1769     2031 1
     814     1167      919 1
     815     1564      667 1
     816     1227      726 1
     817       31       25 1
     818      776      844 1
     819     1420     1430 1
     820     1247      762 1
     821      601      988 1
     822     1130     1389 1
     823     1750     1809 1
     824     1738     1144 1
     825     1326      840 1
     826     1499       93 1
     827     2010      439 1
     828      735      264 1
     829       31       81 1
     830     1632      401 1
     831     1907      507 1
     832     1982       82 1
     833     1599     1092 1
     834      646     1053 1
     835     1820      645 1
     836     2028      456 1
     837     1141     1163 1
     838     1743      869 1
     839     1465      926 1
     840     2002     1461 1
     841      967      980 1
     842     2009     1574 1
     843     1803      108 1
     844      798      287 1
     845      669      511 1
     846     1761     1513 1
     847     1226      987 1
     848     1702     1042 1
     849     1842      405 1
     850      100      441 1
     851      951       18 1
     852     1806      867 1
     853       45      527 1
     854     1835     1020 1
     855      478      501 1
     856     1406     1101 1
     857     2092      778 1
     858     1181     1412 1
     859     1677      860 1
     860     2022     1215 1
     861      758      545 1
     862     1732     1752 1
     863     1747     1168 1
     864     1495      728 1
     865     1303      547 1
     866     1972     1085 1
     867      837      163 1
     868     1903      213 1
     869      666      558 1
     870      924      236 1
     871       98      148 1
     872     1642     1208 1
     873     1132      774 1
     874     1638     1079 1
     875      918       84 1
     876     1433      820 1
     877     1875     2070 1
     878     1627      362 1
     879     1817      524 1
     880      729      177 1
     881     1409      386 1
     882     1240      128 1
     883      156      523 1
     884     1878      353 1
     885     1744     1261 1
     886     1991      414 1
     887     1517     1543 1
     888     1945     1333 1
     889     1411      549 1
     890     1681      690 1
     891     1673      666 1
     892     1445     1522 1
     893     1298      945 1
     894     1492     1508 1
     895     1700      353 1
     896     1747     1498 1
     897     1726     1999 1
     898     1704     1823 1
     899     1894     1318 1
     900     1558      366 1
     901     1139      904 1
     902      578      186 1
     903     1754     1372 1
     904      601     1097 1
     905     1737     1086 1
     906     1917     1224 1
     907     1175     1436 1
     908     1242      223 1
     909     1798      887 1
     910     1989      123 1
     911     1983      304 1
     912      105      123 1
     913     1228      952 1
     914     2095      853 1
     915     1254      204 1
     916     1183      976 1
     917     1162      908 1
     918     1889     1459 1
     919     1841      456 1
     920      612     1010 1
     921     1797     1138 1
     922      899      992 1
     923      307      397 1
     924     1342       71 1
     925     1062      427 1
     926      874      428 1
     927      796      220 1
     928      711      961 1
     929     1969     1261 1
     930     2064      493 1
     931     2017      875 1
     932     1506      442 1
     933     2101     1606 1
     934     1776     1566 1
     935      439      476 1
     936     1525      604 1
     937      919     1003 1
     938      146       22 1
     939      862     1044 1
     940     1470      658 1
     941      687      307 1
     942      598       65 1
     943      699      449 1
     944     1790     1416 1
     945     1965      963 1
     946     1818      848 1
     947     1316      742 1
     948     1860     1581 1
     949     1850     1592 1
     950     1631      180 1
     951     1804     1342 1
     952     1556      842 1
     953     1240      712 1
     954     2085     1328 1
     955     1895      184 1
     956     1490      627 1
     957     1066      332 1
     958     1994     1316 1
     959     2062       62 1
     960     2103      401 1
     961     1363      913 1
     962     2012     1147 1
     963     1367      333 1
     964     1917      466 1
     965     1639      569 1
     966     1898     1456 1
     967     1143      121 1
     968      769      812 1
     969     1568      358 1
     970     1393      492 1
     971     1319      701 1
     972      606      545 1
     973      877     1007 1
     974     1591      128 1
     975     1263       92 1
     976     1855      407 1
     977     1874      769 1
     978     2099     1253 1
     979      591      201 1
     980     1782     1615 1
     981     1608      148 1
     982     1382       52 1
     983     1838      743 1
     984     1410      722 1
     985     1998     1488 1
     986     1310      797 1
     987      292      350 1
     988      254      466 1
     989     1685      822 1
     990     1999      111 1
     991      683      468 1
     992     1907      429 1
     993     2001      374 1
     994     1905      410 1
     995     2004     1484 1
     996     1025     1098 1
     997       66      205 1
     998     1669     1462 1
     999     1172      818 1
    1000     1392      206 1
    1001     1490      182 1
    1002      745      311 1
    1003     1978      300 1
    1004      606      102 1
    1005     1914      288 1
    1006      886     1052 1
    1007     2010     1383 1
    1008     1851      338 1
    1009     1713     1245 1
    1010     1821      242 1
    1011     1475      751 1
    1012     1520      727 1
    1013     1662      961 1
    1014     1353     1087 1
    1015     1778      717 1
    1016      771      234 1
    1017     1572      130 1
    1018     1673     1406 1
    1019     1187     1269 1
    1020      297      390 1
    1021     1972     1367 1
    1022     2048      536 1
    1023     1958      590 1
    1024     1111       24 1
    1025     1749      211 1
    1026      695      133 1
    1027      660       96 1
    1028     1819      802 1
    1029      642     1049 1
    1030     2070      388 1
    1031     1143      974 1
    1032     2100     1588 1
    1033      830      547 1
    1034     1666       29 1
    1035     1916      989 1
    1036     1830      503 1
    1037      585      307 1
    1038     1784      475 1
    1039     1460      877 1
    1040     1318      399 1
    1041      624      424 1
    1042     1773      280 1
    1043      328      458 1
    1044     1847     1198 1
    1045     1420      767 1
    1046     1454      494 1
    1047      576      997 1
    1048      629      133 1
    1049     1905      190 1
    1050      193      519 1
    1051     1390     1451 1
    1052      139      235 1
    1053     1085      557 1
    1054     1537      159 1
    1055     1955     1130 1
    1056      662      995 1
    1057      976     1061 1
    1058     1367      760 1
    1059      120      559 1
    1060     2020     1459 1
    1061     1763     1032 1
    1062     2033      311 1
    1063     1814      883 1
    1064     1120      285 1
    1065     1174      674 1
    1066      755     1024 1
    1067     1779      166 1
    1068     1144     1391 1
    1069     1795     1114 1
    1070     1353      239 1
    1071     1927     2040 1
    1072      795      917 1
    1073      792      872 1
    1074      719       89 1
    1075     1230      668 1
    1076     1585      407 1
    1077     1964       64 1
    1078      736      901 1
    1079     1426      808 1
    1080     1796      822 1
    1081     1792     1875 1
    1082     1323      207 1
    1083      681     1103 1
    1084      863       35 1
    1085      736      943 1
    1086     1899      472 1
    1087      701      784 1
    1088      692        5 1
    1089     1439      409 1
    1090     1252     1562 1
    1091     1703      338 1
    1092     1213      283 1
    1093     1082      474 1
    1094     1134     1575 1
    1095     1322     1083 1
    1096      619     1042 1
    1097       54      558 1
    1098     1575      333 1
    1099     1775     1890 1
    1100     1629      529 1
    1101     1571      630 1
    1102     1764     1276 1
    1103      947     1089 1
    1104     1271      411 1
    1105     1931      433 1
    1106      807      955 1
    1107     1410     1630 1
    1108     1828      632 1
    1109     1480       82 1
    1110     1841     1512 1
    1111     1735      919 1
    1112     1097      140 1
    1113      986       26 1
    1114     1645      925 1
    1115     1497      161 1
    1116     2077     1137 1
    1117     1756     1014 1
    1118      381      422 1
    1119     1854      707 1
    1120     1994     1210 1
    1121     1961      147 1
    1122     1495       70 1
    1123     1909     1135 1
    1124      768      499 1
    1125     1933     1497 1
    1126     1701      236 1
    1127     1788     1345 1
    1128      128      166 1
    1129     1573      217 1
    1130     1709     1769 1
    1131     1787     1014 1
    1132      908      493 1
    1133     1343      446 1
    1134     1684       89 1
    1135     2042      634 1
    1136      930      975 1
    1137      413      493 1
    1138     1292      274 1
    1139     1512      647 1
    1140     2001      453 1
    1141      730      391 1
    1142     2039     2097 1
    1143      672       90 1
    1144     1715     1085 1
    1145      632      185 1
    1146     1588      746 1
    1147     2017     1185 1
    1148     1886     1398 1
    1149      678      496 1
    1150     1557      709 1
    1151     1117      523 1
    1152     1695      822 1
    1153      698      103 1
    1154     1045       37 1
    1155      896      395 1
    1156     1081      486 1
    1157     1993      544 1
    1158      596      164 1
    1159     1862      168 1
    1160     1547       42 1
    1161     1794     1147 1
    1162     1958      237 1
    1163     1382     1414 1
    1164     1239     1332 1
    1165     1622      855 1
    1166     1675     1131 1
    1167      610       60 1
    1168     1777      114 1
    1169     1541      257 1
    1170      635      547 1
    1171     1223      734 1
    1172     2101      832 1
    1173     1281      402 1
    1174     2016     2078 1
    1175     2040      415 1
    1176     1021      406 1
    1177     1974      776 1
    1178     1374      160 1
    1179      963      321 1
    1180     1746      580 1
    1181      977       58 1
    1182     1293      298 1
    1183      694      175 1
    1184     1413      126 1
    1185     1923     1163 1
    1186     1684       59 1
    1187      329      354 1
    1188      897      174 1
    1189       34       28 1
    1190     1599      228 1
    1191      771      308 1
    1192     1356      702 1
    1193      704      872 1
    1194      850     1017 1
    1195     1728     1249 1
    1196      831      198 1
    1197     1239     1294 1
    1198     1048      328 1
    1199      855      139 1
    1200     1952     2030 1
    1201     1423      474 1
    1202     1690     1512 1
    1203      873     1067 1
    1204     1218     1026 1
    1205     1817     1584 1
    1206     1888     2100 1
    1207     1888     1450 1
    1208     1106      914 1
    1209     1848     2103 1
    1210     1440      820 1
    1211     1750     1785 1
    1212     1241      638 1
    1213     1884     1500 1
    1214     1256      535 1
    1215     1410      325 1
    1216     1505      846 1
    1217     1979      423 1
    1218     1182      725 1
    1219     1337     1414 1
    1220      715        4 1
    1221     1483      345 1
    1222     1460      205 1
    1223     1658     1748 1
    1224     1865     1222 1
    1225     1968      248 1
    1226     1814      708 1
    1227     2074       86 1
    1228     1230      679 1
    1229     1871     1157 1
    1230     1741     1026 1
    1231     1147      212 1
    1232     1624      280 1
    1233      959      486 1
    1234      620      403 1
    1235       41      215 1
    1236      934      368 1
    1237     1754      804 1
    1238     1934     1290 1
    1239     1964     1625 1
    1240     2069      143 1
    1241      708      446 1
    1242     1555      878 1
    1243     1870     1293 1
    1244      277      336 1
    1245     1751     1958 1
    1246     1777     2049 1
    1247     1459      697 1
    1248      648      709 1
    1249     1511      377 1
    1250     1357     1549 1
    1251      420      457 1
    1252     1834      965 1
    1253      614      250 1
    1254     1979     1375 1
    1255     1557       24 1
    1256      954       60 1
    1257     1779      803 1
    1258     1077      151 1
    1259     1107     1510 1
    1260     1496      674 1
    1261     1542      386 1
    1262     2098     1182 1
    1263      113      361 1
    1264     1667     1180 1
    1265     1448      184 1
    1266     1669     1532 1
    1267     1707     1921 1
    1268     1601      352 1
    1269      788      910 1
    1270     1442     1012 1
    1271     2012     1230 1
    1272     1181     1423 1
    1273     1152     1488 1
    1274     1010     1089 1
    1275     1786      944 1
    1276     1320      408 1
    1277      636      262 1
    1278     1686     1217 1
    1279      978       92 1
    1280     1474     1018 1
    1281     1174      264 1
    1282     1787      831 1
    1283     1208      246 1
    1284      468       14 1
    1285     1660       62 1
    1286     1833      649 1
    1287      740      336 1
    1288     1231        8 1
    1289     1387      115 1
    1290     1721     1839 1
    1291     1954     1295 1
    1292     2043      531 1
    1293     1921     1104 1
    1294      291      315 1
    1295     1778     1428 1
    1296     1740      774 1
    1297     1193      167 1
    1298     1529     1603 1
    1299      800      138 1
    1300     1108      510 1
    1301     1275      670 1
    1302      819     1047 1
    1303     1407     1035 1
    1304     1319     1582 1
    1305      902      343 1
    1306     1996      744 1
    1307     1385     1598 1
    1308      264      382 1
    1309     1797     1830 1
    1310      346      476 1
    1311      632      660 1
    1312       94      207 1
    1313     1282     1491 1
    1314     1340     1038 1
    1315      574      535 1
    1316      104      435 1
    1317     1670     1809 1
    1318     1013      211 1
    1319     1307      581 1
    1320      775      453 1
    1321     2084      154 1
    1322     1060      164 1
    1323     1677     1265 1
    1324      579      500 1
    1325     1116     1207 1
    1326     1392     1103 1
    1327     1255     1568 1
    1328     1646      285 1
    1329     1710     1790 1
    1330     1714      454 1
    1331     1311      554 1
    1332     1742      850 1
    1333      102      141 1
    1334      579      421 1
    1335     1380      781 1
    1336     1211      477 1
    1337     1242      969 1
    1338     1308      703 1
    1339     1245      382 1
    1340     1570      722 1
    1341     1373      223 1
    1342     1788     1154 1
    1343     1912      624 1
    1344     1000      270 1
    1345     1193      679 1
    1346     1122     1360 1
    1347      570      448 1
    1348      148      226 1
    1349     2024       60 1
    1350     1690     2073 1
    1351      946      217 1
    1352     1939      431 1
    1353     2056      275 1
    1354     1933      137 1
    1355     1262     1496 1
    1356     1663      301 1
    1357     1187     1572 1
    1358      928      942 1
    1359     1713      873 1
    1360      193      324 1
    1361     2086     1486 1
    1362      340        8 1
    1363     1808     2096 1
    1364     1402     1096 1
    1365     1893     1940 1
    1366     1742     1205 1
    1367     1936     1321 1
    1368     1733     2021 1
    1369      509      545 1
    1370      720      403 1
    1371     1254      179 1
    1372      669      875 1
    1373     1930      275 1
    1374     1205      298 1
    1375     1812       41 1
    1376     1774     1553 1
    1377     2034      627 1
    1378     1646      995 1
    1379     1139      571 1
    1380     1365     1632 1
    1381     1145      900 1
    1382     2099       12 1
    1383      616      409 1
    1384     1185      645 1
    1385     2031      967 1
    1386      703      342 1
    1387     1100       95 1
    1388     1316      664 1
    1389     1969      808 1
    1390     2041      337 1
    1391      582      264 1
    1392       57      551 1
    1393     1334       94 1
    1394      889      406 1
    1395     1035      125 1
    1396     1141      157 1
    1397     1677     1906 1
    1398     1840     1966 1
    1399     1130      522 1
    1400     1110      700 1
    1401     1786     1161 1
    1402     2062       33 1
    1403     1699      624 1
    1404     1801      841 1
    1405      597      858 1
    1406     1955      621 1
    1407     1001     1096 1
    1408     1888     1504 1
    1409     1913       57 1
    1410     1791      494 1
    1411     1159      549 1
    1412      639      734 1
    1413     1992     2050 1
    1414     1830     1287 1
    1415     1693     2003 1
    1416     1895     1196 1
    1417     1643      309 1
    1418     2015      130 1
    1419     1127     1607 1
    1420     1565      729 1
    1421     1527      532 1
    1422     1456      544 1
    1423     1234      833 1
    1424     1798       49 1
    1425     1856     1293 1
    1426     1697     1701 1
    1427      315      378 1
    1428     1953     1549 1
    1429     1997      872 1
    1430     1922     1506 1
    1431     1175      452 1
    1432     1019      515 1
    1433     2063      646 1
    1434     1649      992 1
    1435     2078      659 1
    1436     2076     1236 1
    1437     1723      257 1
    1438     1086      470 1
    1439     1238      176 1
    1440     1734     1162 1
    1441     1941     1392 1
    1442      766      194 1
    1443     1971     1377 1
    1444      260      528 1
    1445     1945     1190 1
    1446     2062      898 1
    1447     1619       10 1
    1448     1139      973 1
    1449      770      215 1
    1450      131      248 1
    1451     1977      788 1
    1452     1800     1422 1
    1453      355      566 1
    1454     1894     1422 1
    1455      723      884 1
    1456     1499     1589 1
    1457     2015      795 1
    1458     1266      477 1
    1459      721      947 1
    1460     2104      756 1
    1461      923       21 1
    1462      102      518 1
    1463       56      531 1
    1464     2059      462 1
    1465     1725      782 1
    1466     2009      912 1
    1467      605       54 1
    1468       34      188 1
    1469     1549      982 1
    1470     1430      356 1
    1471     1676     1211 1
    1472     1656     1978 1
    1473     1346      189 1
    1474     1032      306 1
    1475      672      214 1
    1476     1293     1324 1
    1477     1268      475 1
    1478     1535      731 1
    1479     1887     1622 1
    1480      603      461 1
    1481     1290      824 1
    1482     1858      357 1
    1483     1193      500 1
    1484     1910     1304 1
    1485     1845      763 1
    1486       96      259 1
    1487     1978     1403 1
    1488      795      443 1
    1489     1739     1966 1
    1490     1482      719 1
    1491     1304      891 1
    1492     1282      345 1
    1493     1971      747 1
    1494     1635      279 1
    1495      981      487 1
    1496     1351      406 1
    1497     1508      866 1
    1498     1680      295 1
    1499     1962      851 1
    1500       74      537 1
    1501     1506      757 1
    1502     2091     1452 1
    1503      592      144 1
    1504     1194     1051 1
    1505     1237      469 1
    1506       31      417 1
    1507      628      366 1
    1508     1778     1226 1
    1509      816     1094 1
    1510      673      195 1
    1511     1805      603 1
    1512      924      388 1
    1513      853        2 1
    1514      570      277 1
    1515      893      274 1
    1516     1624      682 1
    1517      575      857 1
    1518      932      361 1
    1519      765      438 1
    1520     2001      940 1
    1521     1526      790 1
    1522      962      128 1
    1523     1460       97 1
    1524      927      353 1
    1525     1903     1030 1
    1526      625      892 1
    1527     1525      566 1
    1528      604      991 1
    1529     1170      816 1
    1530     2043      564 1
    1531     1948     1505 1
    1532     1765      172 1
    1533     1677     1191 1
    1534     1432      778 1
    1535      586      924 1
    1536     1976     1251 1
    1537      758     1076 1
    1538     1752      755 1
    1539     1454      436 1
    1540      592      309 1
    1541      650       95 1
    1542     1379      907 1
    1543     1905     1308 1
    1544      788      394 1
    1545     1211     1519 1
    1546     1842       17 1
    1547     1949     1364 1
    1548     2032      172 1
    1549     1388      197 1
    1550     1636      154 1
    1551     1317      786 1
    1552     2090     1057 1
    1553     1177      575 1
    1554      360      390 1
    1555     1613      283 1
    1556     1861       23 1
    1557     1113       61 1
    1558     1796     1335 1
    1559     1687     1495 1
    1560     1883      645 1
    1561     1675      509 1
    1562     2013      754 1
    1563     1415      348 1
    1564     1272      880 1
    1565     1516      974 1
    1566     1974     1416 1
    1567     1989      457 1
    1568      598      358 1
    1569      427      533 1
    1570     1332     1101 1
    1571      703      158 1
    1572     1926      230 1
    1573     1773      539 1
    1574     2038      232 1
    1575      941      108 1
    1576     1391      777 1
    1577     1443      525 1
    1578     1533       47 1
    1579     1188      810 1
    1580     1759     1365 1
    1581     1500      238 1
    1582      597      797 1
    1583     1150      201 1
    1584     1269       48 1
    1585      194      334 1
    1586     1927     1166 1
    1587     1618      581 1
    1588     1401     1576 1
    1589     1211     1102 1
    1590      843     1022 1
    1591     2086      572 1
    1592     1826     1108 1
    1593     2051      924 1
    1594     1023      433 1
    1595       53       56 1
    1596     1789     1113 1
    1597      849     1075 1
    1598     1312      100 1
    1599     1586      248 1
    1600     1236     1478 1
    1601     1559       29 1
    1602     1329      470 1
    1603     1142     1323 1
    1604     1543      818 1
    1605      641      256 1
    1606     1514      823 1
    1607     1299      690 1
    1608      938      301 1
    1609     1814      738 1
    1610     1265     1527 1
    1611     1842      750 1
    1612     1481     1580 1
    1613      775      539 1
    1614     1245      163 1
    1615     2000     1615 1
    1616      633     1035 1
    1617     1770     1771 1
    1618     1653     1556 1
    1619     1818     1997 1
    1620     1424      703 1
    1621      914     1026 1
    1622     1529      893 1
    1623     1756      560 1
    1624      945      530 1
    1625     1229      154 1
    1626     1505      228 1
    1627     2065      705 1
    1628     2099      103 1
    1629     1722      772 1
    1630      123      339 1
    1631     1473      349 1
    1632     1586      937 1
    1633     1657      251 1
    1634     1666     1220 1
    1635      159       25 1
    1636     1916     1065 1
    1637     1401      213 1
    1638     1701     1602 1
    1639     1199      290 1
    1640     1480      428 1
    1641     1248       35 1
    1642     2022     2044 1
    1643     1499      874 1
    1644      712      803 1
    1645     1280      451 1
    1646     1210      266 1
    1647     1078      344 1
    1648     1398      964 1
    1649      155      466 1
    1650     1299     1359 1
    1651     1262      147 1
    1652     1706      581 1
    1653     1340      263 1
    1654      593      920 1
    1655     2079      945 1
    1656     1005      463 1
    1657     1938     1491 1
    1658     1853      463 1
    1659     1843      287 1
    1660      811       68 1
    1661     1872     1520 1
    1662      802      284 1
    1663     1481      467 1
    1664     1052      246 1
    1665     1391      265 1
    1666      981      305 1
    1667     1149        7 1
    1668     1223     1309 1
    1669     2018      562 1
    1670     1740     1445 1
    1671     1660      226 1
    1672     1979     1544 1
    1673      615      223 1
    1674      754      268 1
    1675      653      560 1
    1676     1679      492 1
    1677      916     1033 1
    1678     1514      517 1
    1679     1659     1112 1
    1680     1228      199 1
    1681     1818      898 1
    1682     1671      231 1
    1683     1135      402 1
    1684     1187       80 1
    1685     1698      904 1
    1686     1196      733 1
    1687     1696     1366 1
    1688     1852     1161 1
    1689     1472      775 1
    1690      541       10 1
    1691     1883      669 1
    1692      648      377 1
    1693     1439     1559 1
    1694     1764     1389 1
    1695      802     1040 1
    1696     1402      194 1
    1697      725      303 1
    1698     1948      239 1
    1699     2021      527 1
    1700      976      316 1
    1701     1192      748 1
    1702     1306     1593 1
    1703     1429      419 1
    1704     2047     1020 1
    1705     1252     1547 1
    1706     1131      523 1
    1707     1411     1032 1
    1708     1913      523 1
    1709     1743     1532 1
    1710     1347      115 1
    1711     1920     2011 1
    1712     1809     1943 1
    1713     1843        5 1
    1714     1213      249 1
    1715     2099      394 1
    1716     1785      180 1
    1717      810      326 1
    1718     1945      662 1
    1719     2062     1027 1
    1720     1946      916 1
    1721     1708     1087 1
    1722     1121      492 1
    1723     1267      275 1
    1724      344      426 1
    1725      949      242 1
    1726      781      901 1
    1727     1652      420 1
    1728      767      419 1
    1729      601     1073 1
    1730     1991     1121 1
    1731     1129      120 1
    1732     1599      318 1
    1733     1484      132 1
    1734     1331     1623 1
    1735     1667      567 1
    1736     1847     1002 1
    1737     1689      640 1
    1738     1980       36 1
    1739     1702      262 1
    1740     1985      100 1
    1741     1285      969 1
    1742     1215      690 1
    1743     1418     1550 1
    1744       35      512 1
    1745     1235      592 1
    1746     2088      215 1
    1747     1954      279 1
    1748      576      951 1
    1749     1421      356 1
    1750     1806      829 1
    1751     1202      939 1
    1752     1141     1449 1
    1753     2078     1160 1
    1754     1543      160 1
    1755     1734     1122 1
    1756     1814     1218 1
    1757      739      262 1
    1758     1985     1222 1
    1759     2060      146 1
    1760     1777     1469 1
    1761     1776     1987 1
    1762     1088      112 1
    1763     1636      820 1
    1764      805       20 1
    1765     1890     1007 1
    1766     1173      634 1
    1767      975       46 1
    1768     1679     1680 1
    1769     1929      994 1
    1770     1186      694 1
    1771     2014     2091 1
    1772     1864       48 1
    1773     1045      467 1
    1774     1899      513 1
    1775      393      555 1
    1776     1601      179 1
    1777      733      275 1
    1778     2044      223 1
    1779      970       98 1
    1780     1959     1335 1
    1781     1123     1615 1
    1782     1795     1952 1
    1783     1589     1093 1
    1784     1382      219 1
    1785     1657       33 1
    1786     1821     1043 1
    1787     1536      963 1
    1788     1754      447 1
    1789     1143      516 1
    1790     1892     1634 1
    1791     1489      578 1
    1792      225      507 1
    1793     2036      529 1
    1794     1266      528 1
    1795     1472      584 1
    1796     1217      854 1
    1797      178       15 1
    1798     1120      995 1
    1799     1694      134 1
    1800     1405      626 1
    1801     1461      827 1
    1802     1645      481 1
    1803     1325      672 1
    1804     1804     1995 1
    1805     1438      948 1
    1806     1403      699 1
    1807     1198      933 1
    1808     2083     1475 1
    1809     1384     1035 1
    1810      613      115 1
    1811     1304      587 1
    1812     1093      313 1
    1813      884      151 1
    1814     1651     1223 1
    1815     1315      201 1
    1816     1285      435 1
    1817      313      473 1
    1818     1992      218 1
    1819     1793      583 1
    1820      696      715 1
    1821      581      637 1
    1822     2022      104 1
    1823     1893      918 1
    1824     1141       28 1
    1825     1115      794 1
    1826     1054       86 1
    1827     1999     1396 1
    1828     1442      355 1
    1829     1668     1071 1
    1830     1137     1167 1
    1831     1421     1096 1
    1832     1477      583 1
    1833      723      171 1
    1834     1819     1590 1
    1835      761      421 1
    1836     1923      637 1
    1837     1476      737 1
    1838      731       43 1
    1839     1371      216 1
    1840     1161      950 1
    1841     1126     1219 1
    1842     1730      955 1
    1843     1233      130 1
    1844     1297     1045 1
    1845      826      431 1
    1846     1433      493 1
    1847      692      454 1
    1848     1655     1374 1
    1849     1292      838 1
    1850     1929      966 1
    1851       35      233 1
    1852     1665      145 1
    1853     1302      319 1
    1854     1682     1704 1
    1855     1950      225 1
    1856     1712     1110 1
    1857     2035      684 1
    1858      773      244 1
    1859     1512      434 1
    1860     1922     1162 1
    1861     1118      502 1
    1862     1821      141 1
    1863      377      385 1
    1864     1369     1060 1
    1865     1881       84 1
    1866     1325      670 1
    1867     1526      928 1
    1868     2022      116 1
    1869     1195     1213 1
    1870     1479      626 1
    1871     1590      192 1
    1872      293      520 1
    1873      252      484 1
    1874     1349      337 1
    1875     2039       58 1
    1876     1210      222 1
    1877     1400      834 1
    1878      669     1021 1
    1879     1170      726 1
    1880     2003      350 1
    1881     1418      622 1
    1882     1931     2029 1
    1883     2027      521 1
    1884     1719      425 1
    1885     1698      696 1
    1886      111      501 1
    1887     1031       79 1
    1888      844     1069 1
    1889     1658     1610 1
    1890     1966      321 1
    1891     1776      173 1
    1892     1825      521 1
    1893       71      568 1
    1894     1306     1059 1
    1895     1760     1980 1
    1896     1682     1363 1
    1897      756      996 1
    1898     1521      516 1
    1899     1245      370 1
    1900     1861      134 1
    1901      117      562 1
    1902     1879     1602 1
    1903     1962      997 1
    1904      861      990 1
    1905     2058      995 1
    1906     1350     1077 1
    1907     1109      499 1
    1908     1503      623 1
    1909     1958     1046 1
    1910     1210      375 1
    1911     1956     1478 1
    1912     2024      194 1
    1913     1366      960 1
    1914     1640      997 1
    1915     2018      638 1
    1916     1839     1609 1
    1917     1227     1329 1
    1918     1885       68 1
    1919      249      393 1
    1920      897      221 1
    1921     1867     1400 1
    1922     1758     1827 1
    1923     1356      113 1
    1924     1526       55 1
    1925     1944      954 1
    1926     1945      842 1
    1927     1337      316 1
    1928     1510      556 1
    1929     1223      169 1
    1930     2091      724 1
    1931     2027       84 1
    1932     1891      474 1
    1933     1560       66 1
    1934     1222      727 1
    1935     1073      220 1
    1936     1590     1074 1
    1937      639      959 1
    1938      868      356 1
    1939     1146     1280 1
    1940     2105     1471 1
    1941     1509      905 1
    1942     1225     1261 1
    1943     2029      560 1
    1944     1921     1394 1
    1945     1578      134 1
    1946     1272     1050 1
    1947     1359     1368 1
    1948      720      287 1
    1949     1263      753 1
    1950     1279     1507 1
    1951     1476       13 1
    1952      647      661 1
    1953     1671      673 1
    1954     1593      569 1
    1955      868     1087 1
    1956      344       19 1
    1957      652      949 1
    1958     1214     1407 1
    1959     1735     2039 1
    1960     1842     1244 1
    1961     1115     1301 1
    1962      526        5 1
    1963     1929     1084 1
    1964     1960      135 1
    1965      810     1064 1
    1966     1918      731 1
    1967     1476     1627 1
    1968     1960     1385 1
    1969     1961      430 1
    1970     1149       30 1
    1971     1341      712 1
    1972     1711      381 1
    1973     1739      990 1
    1974      881      347 1
    1975     2046      568 1
    1976     2011     1400 1
    1977     1348     1542 1
    1978     1766      454 1
    1979      681      793 1
    1980     2072      468 1
    1981     1467      483 1
    1982      668      837 1
    1983      598      422 1
    1984     2102      560 1
    1985     1534      400 1
    1986     1491      746 1
    1987     1980      271 1
    1988     2066      873 1
    1989     1030     1052 1
    1990     1310      357 1
    1991     2037       57 1
    1992     1649     1731 1
    1993     2001      983 1
    1994     1230       39 1
    1995     1855     1161 1
    1996      201       11 1
    1997     2073     1346 1
    1998     1866     1115 1
    1999     1810     1422 1
    2000     1425      982 1
    2001     2017      993 1
    2002     1392       30 1
    2003      881      295 1
    2004     1176     1076 1
    2005      899        2 1
    2006     1973     1000 1
    2007     2009      817 1
    2008     1981      349 1
    2009      322      474 1
    2010     1115      124 1
    2011     1781     1833 1
    2012     1824      206 1
    2013     1453      211 1
    2014     1521      564 1
    2015     2063     1137 1
    2016     1856     1047 1
    2017     1725     1519 1
    2018     2075     1175 1
    2019     1136     1251 1
    2020     1877      258 1
    2021     2052      562 1
    2022     2104     1547 1
    2023      631      723 1
    2024     1691      446 1
    2025     1920      879 1
    2026     1509      351 1
    2027     2051     1485 1
    2028      831      846 1
    2029     1260      451 1
    2030     1607      341 1
    2031     1305      552 1
    2032     1900      329 1
    2033     1597      197 1
    2034     1956       40 1
    2035     1929     1591 1
    2036     1975      801 1
    2037     1965      844 1
    2038     1058      456 1
    2039      605      871 1
    2040      813      296 1
    2041     1357     1011 1
    2042      108      450 1
    2043     1328      623 1
    2044     1665      760 1
    2045     1274      946 1
    2046     1511      919 1
    2047     1831      748 1
    2048     1558      786 1
    2049     1450       82 1
    2050     1302      858 1
    2051      971      176 1
    2052     1963      217 1
    2053     1765     1508 1
    2054       87       23 1
    2055     1217     1428 1
    2056     1788       63 1
    2057     1229      920 1
    2058      887      916 1
    2059      686      710 1
    2060     1643     2005 1
    2061      953      120 1
    2062     2102     1539 1
    2063     1858     1567 1
    2064     1763      340 1
    2065     1262      289 1
    2066      584      655 1
    2067      942      101 1
    2068     1862      752 1
    2069       64      487 1
    2070     1705     1776 1
    2071      949     1048 1
    2072      794      496 1
    2073     1434     1504 1
    2074     1082      211 1
    2075      731       38 1
    2076     1351      800 1
    2077      152      409 1
    2078     1747     1109 1
    2079      788      254 1
    2080      671      425 1
    2081     1743     1034 1
    2082      849      129 1
    2083      308      419 1
    2084     1214      395 1
    2085     2048     1188 1
    2086      942      300 1
    2087       72      314 1
    2088     1757       23 1
    2089     2017     1358 1
    2090     1667     1846 1
    2091     1273      444 1
    2092     1435     1500 1
    2093     1716      934 1
    2094     1836      525 1
    2095     2023      473 1
    2096     1395      390 1
    2097     1902      403 1
    2098     1604      620 1
    2099     2040      489 1
    2100     1733     1018 1
    2101     1019      496 1
    2102     1296     1475 1
    2103     1544      699 1
    2104      813      939 1
    2105     2061     1552 1
    2106     1592      504 1
    2107     1318      504 1
    2108      759      525 1
    2109     2076      882 1
    2110     1169     1371 1
    2111     1273      432 1
    2112     1795     1946 1
    2113     1535      553 1
    2114     1434      364 1
    2115      723      546 1
    2116     1654      338 1
    2117     1944      331 1
    2118     1471      654 1
    2119     1449      285 1
    2120     1837     1201 1
    2121     1837      459 1
    2122     1214      480 1
    2123     1116       78 1
    2124     1485      310 1
    2125      851      445 1
    2126     1467      508 1
    2127     1722      413 1
    2128     2049     1348 1
    2129     1873     1281 1
    2130     1518      670 1
    2131     1327     1425 1
    2132     1166      497 1
    2133     1564      891 1
    2134     1260      245 1
    2135     1718      923 1
    2136     2082      367 1
    2137      632     1041 1
    2138     1780     1350 1
    2139     1250      336 1
    2140     1604      819 1
    2141     1724      761 1
    2142      792      529 1
    2143     1302      513 1
    2144     2093     1002 1
    2145     1748      879 1
    2146      656      208 1
    2147     1369      349 1
    2148      129       26 1
    2149     1660     1692 1
    2150     1942     1151 1
    2151     1340     1502 1
    2152     1799      257 1
    2153     1644      172 1
    2154      243       24 1
    2155      381      455 1
    2156     1803      969 1
    2157      968      258 1
    2158     1893      273 1
    2159     1838     1635 1
    2160     1852      151 1
    2161     1772      398 1
    2162     2030     1284 1
    2163     1931     1216 1
    2164     1516      378 1
    2165     1241     1592 1
    2166      811      537 1
    2167     1879      404 1
    2168      850       13 1
    2169     1938     1310 1
    2170     1204      345 1
    2171     1267     1534 1
    2172     1254      653 1
    2173     1899       99 1
    2174     1184      913 1
    2175     1481      657 1
    2176     1567      642 1
    2177     1848     1295 1
    2178     1791     2086 1
    2179     1289     1593 1
    2180      638      933 1
    2181     1219      231 1
    2182     2074      353 1
    2183       94      472 1
    2184     1140     1615 1
    2185     1981      694 1
    2186      605      138 1
    2187     1234     1530 1
    2188     1707     1203 1
    2189     1527      714 1
    2190     2070      440 1
    2191     1768      496 1
    2192     2056      446 1
    2193     1330      148 1
    2194     1275      800 1
    2195      299      553 1
    2196      881      429 1
    2197      997      149 1
    2198      784      557 1
    2199     1559      376 1
    2200     1208      125 1
    2201      645      109 1
    2202     1331      936 1
    2203     1362      463 1
    2204     1011      478 1
    2205      649      431 1
    2206      774     1080 1
    2207     2079     1262 1
    2208     1434      319 1
    2209     1090      239 1
    2210      136      549 1
    2211     1058      241 1
    2212     1838     1355 1
    2213     1634      602 1
    2214     1234     1447 1
    2215     1126      817 1
    2216     1277      899 1
    2217     1993       11 1
    2218     1902     1601 1
    2219      839      987 1
    2220     1949      187 1
    2221      873      131 1
    2222      816      488 1
    2223     1501     1553 1
    2224     1675      730 1
    2225     1736      686 1
    2226     1844     1617 1
    2227     2025      361 1
    2228     1817     1380 1
    2229     1916     1061 1
    2230     1529      567 1
    2231      237      486 1
    2232     1309     1539 1
    2233      709      372 1
    2234     1125      935 1
    2235     1345     1607 1
    2236     1961      915 1
    2237      836      947 1
    2238     1696      501 1
    2239     1802     1305 1
    2240     1827     2025 1
    2241     1755     1471 1
    2242      688      389 1
    2243     1647     2103 1
    2244     1026      482 1
    2245     2065      917 1
    2246     1596     1052 1
    2247     1626       79 1
    2248     1901      970 1
    2249     1159       45 1
    2250     1259      184 1
    2251     1682      935 1
    2252      843       16 1
    2253     2055     2098 1
    2254      808      387 1
    2255     1767     1002 1
    2256     1737      311 1
    2257      843       97 1
    2258      812      154 1
    2259     1919      838 1
    2260      766      970 1
    2261     1221     1562 1
    2262     1808      542 1
    2263     1805      763 1
    2264     1914      144 1
    2265     1202     1612 1
    2266      593      623 1
    2267     1588      510 1
    2268     1295      276 1
    2269     1812      534 1
    2270      870      424 1
    2271     1116        9 1
    2272     1447     1478 1
    2273     1673      643 1
    2274     1904     1010 1
    2275     1199      362 1
    2276     1617      983 1
    2277     1727      241 1
    2278      486       22 1
    2279      646      958 1
    2280     1166      465 1
    2281      635      120 1
    2282     1495      216 1
    2283     1886      942 1
    2284     1906     1617 1
    2285      878      941 1
    2286     1126      998 1
    2287     1470      675 1
    2288     2090      605 1
    2289     2095      256 1
    2290      695      890 1
    2291     1554      337 1
    2292      896       36 1
    2293      469      555 1
    2294     1824      697 1
    2295     1676      784 1
    2296     1569      669 1
    2297      732       15 1
    2298       85      473 1
    2299     1738     1180 1
    2300     1427      123 1
    2301     1125     1538 1
    2302     1191      765 1
    2303      749     1059 1
    2304     1639     1494 1
    2305     1908     1610 1
    2306     1964      538 1
    2307     1015      391 1
    2308       76       24 1
    2309     1153      584 1
    2310     1904     1086 1
    2311     2045     1101 1
    2312     1314     1007 1
    2313      161      270 1
    2314     1582       56 1
    2315      829      391 1
    2316     2082      929 1
    2317     1443      475 1
    2318     1391      739 1
    2319     1907     1583 1
    2320     1007      491 1
    2321     1533      986 1
    2322      789      407 1
    2323      779     1029 1
    2324     1335       74 1
    2325     1822     1224 1
    2326      863      984 1
    2327     1610      864 1
    2328     1415     1448 1
    2329     1427      133 1
    2330     2039      852 1
    2331     2064     1485 1
    2332     1485      980 1
    2333     1550      929 1
    2334     1012     1037 1
    2335     1790     1546 1
    2336      245      297 1
    2337     2019     1608 1
    2338     1256      920 1
    2339     1137     1494 1
    2340     1274      926 1
    2341     1789     2038 1
    2342     1135     1457 1
    2343     1732      596 1
    2344     1824      518 1
    2345     1935     1456 1
    2346      165      191 1
    2347     1336     1378 1
    2348     1974      416 1
    2349     1270      143 1
    2350     1983     1569 1
    2351     1584      398 1
    2352     1910       34 1
    2353     1620      698 1
    2354     1277     1020 1
    2355     1659      948 1
    2356      728      944 1
    2357     1312      725 1
    2358     1769     1891 1
    2359     1661      425 1
    2360     1340      618 1
    2361     1668      838 1
    2362     1049       20 1
    2363      661      263 1
    2364      718      849 1
    2365     1367     1397 1
    2366     1129      112 1
    2367     1344     1098 1
    2368     1196      814 1
    2369     1231     1515 1
    2370     2077      890 1
    2371      726      522 1
    2372     2068     2076 1
    2373      741        9 1
    2374       87      566 1
    2375     1623      786 1
    2376     1794     1438 1
    2377     2019      573 1
    2378     1302      238 1
    2379      659     1066 1
    2380     1359      434 1
    2381     1138     1094 1
    2382      821      515 1
    2383     1745     1812 1
    2384     1666       16 1
    2385     1505      548 1
    2386     1975      716 1
    2387     1235      972 1
    2388       95      266 1
    2389     1736     1029 1
    2390     1815      634 1
    2391     1500      447 1
    2392     1897      810 1
    2393     1624     1633 1
    2394     1110      230 1
    2395     2010      922 1
    2396     1333      617 1
    2397      705      282 1
    2398     1023      369 1
    2399      778      806 1
    2400     1150     1342 1
    2401     1102      260 1
    2402     1887       73 1
    2403     1859      672 1
    2404      617      785 1
    2405     1528      328 1
    2406     1152      314 1
    2407     1596      444 1
    2408      392      515 1
    2409      693      554 1
    2410     1409      139 1
    2411      771      824 1
    2412     1172      247 1
    2413     1266      589 1
    2414       50       79 1
    2415     1967      150 1
    2416     1157      969 1
    2417      685      707 1
    2418     1471      931 1
    2419     1950       40 1
    2420     1898     1491 1
    2421     2038     1362 1
    2422     1873      566 1
    2423     1771     1054 1
    2424     1243      176 1
    2425     1198      876 1
    2426     1816     1378 1
    2427     1882      736 1
    2428     1915     1991 1
    2429      590     1014 1
    2430      915      937 1
    2431     1381     1018 1
    2432     1839      644 1
    2433     1523      379 1
    2434     1689     1853 1
    2435     1836     1000 1
    2436     1233      944 1
    2437     1639     1441 1
    2438     1637     1079 1
    2439     1164      492 1
    2440     2065       51 1
    2441     1418      348 1
    2442     1330      890 1
    2443     1595      407 1
    2444     1909     1467 1
    2445     1770      736 1
    2446     1444     1014 1
    2447     1004      482 1
    2448     1849     1571 1
    2449     1900      795 1
    2450     1110      805 1
    2451      676      427 1
    2452      965      162 1
    2453      741      408 1
    2454     1880     1175 1
    2455     1639        3 1
    2456     1746     1577 1
    2457     1811      373 1
    2458     1663      558 1
    2459     1764     1246 1
    2460     1465      251 1
    2461     1672      748 1
    2462      715     1041 1
    2463      807      315 1
    2464     1871      540 1
    2465     1610      743 1
    2466     1286     1590 1
    2467     1924     1060 1
    2468     1318      753 1
    2469      436      438 1
    2470     1806      979 1
    2471     1522      337 1
    2472     1644     1478 1
    2473      984      323 1
    2474     1172     1515 1
    2475     2073      452 1
    2476     1062       56 1
    2477      371      475 1
    2478     1171      623 1
    2479     1641      690 1
    2480     1903     1384 1
    2481     1605      485 1
    2482     2003     2094 1
    2483      577      386 1
    2484     1263     1487 1
    2485     1169      409 1
    2486     2067     1350 1
    2487     2045      774 1
    2488     1298      961 1
    2489     2047      398 1
    2490     2037     1076 1
    2491      940      208 1
    2492     1270     1274 1
    2493     1964      426 1
    2494      674     1084 1
    2495      614      435 1
    2496     1932     1508 1
    2497      608       26 1
    2498     1694     1728 1
    2499     1327      603 1
    2500     1715     1743 1
    2501     1960     1278 1
    2502      116      250 1
    2503     1355      853 1
    2504     1827     2006 1
    2505     1876      469 1
    2506     1638      241 1
    2507     1541      189 1
    2508     1228      323 1
    2509     1212      294 1
    2510      140      384 1
    2511     1492      681 1
    2512     2061      454 1
    2513      625      240 1
    2514      584      497 1
    2515     1614      741 1
    2516     1802     1068 1
    2517     1604      118 1
    2518     1524     1568 1
    2519     1045      561 1
    2520     1970     1366 1
    2521     1809     1028 1
    2522     1587      729 1
    2523     1425     1594 1
    2524     1717      191 1
    2525      575      586 1
    2526     2087      476 1
    2527      252      503 1
    2528     1829      419 1
    2529      761     1091 1
    2530     1415     1486 1
    2531      199      451 1
    2532      689      702 1
    2533     1361      274 1
    2534     1459     1065 1
    2535     1788      764 1
    2536     1858     1207 1
    2537     1148     1331 1
    2538     1420      288 1
    2539     1801      498 1
    2540     2020       15 1
    2541     1581      923 1
    2542      450       10 1
    2543     2081      978 1
    2544     1160      161 1
    2545      655      688 1
    2546     1435      597 1
    2547      820      841 1
    2548     1189     1553 1
    2549      825      292 1
    2550     1620      729 1
    2551     1624      860 1
    2552     1510      385 1
    2553      691     1066 1
    2554     1533      883 1
    2555     1017       26 1
    2556      726      383 1
    2557     1659      906 1
    2558     1545      140 1
    2559     1944      936 1
    2560     1580     1604 1
    2561     1868     1032 1
    2562      568       12 1
    2563      150      174 1
    2564     1466     1488 1
    2565     2043     1264 1
    2566     1202      412 1
    2567      809      290 1
    2568       50      150 1
    2569     1158     1410 1
    2570     1371      827 1
    2571     1844      765 1
    2572     1490        1 1
    2573     1099      256 1
    2574      380      451 1
    2575      998       79 1
    2576     1728      772 1
    2577     1744     1122 1
    2578     1055      425 1
    2579      698      930 1
    2580     1321      978 1
    2581     1111      977 1
    2582     1645     1540 1
    2583      613       86 1
    2584     1543      542 1
    2585     1746      188 1
    2586      224      329 1
    2587     1687      686 1
    2588      955     1081 1
    2589     1527      589 1
    2590      719      506 1
    2591     1509      595 1
    2592     1146      271 1
    2593     1725     1468 1
    2594     1119      911 1
    2595     1979     1338 1
    2596     1748     1857 1
    2597      460      494 1
    2598     1775      253 1
@<TRIPOS>SUBSTRUCTURE
       1 RES             1 RESIDUE    0 **** ROOT      0
